
 *******************************************************************************

         NASA-GLENN CHEMICAL EQUILIBRIUM PROGRAM CEA2, MAY 21, 2004
                   BY  BONNIE MCBRIDE AND SANFORD GORDON
      REFS: NASA RP-1311, PART I, 1994 AND NASA RP-1311, PART II, 1996

 *******************************************************************************



  prob tp ions
  p,bar= 0.54,0.6,0.67,0.74,0.825,0.91,1.0,1.1,1.2,1.32,1.48,1.65,1.8,2.0,2.25
  t,k= 350,355,360,365,370,375,380,385,390,395,400,405,410,415,420
  
  reac
  na H2                wt%=100.0000
  
  output short
  output siunits
  output transport
  
 end





               THERMODYNAMIC EQUILIBRIUM PROPERTIES AT ASSIGNED

                           TEMPERATURE AND PRESSURE

 CASE =                

             REACTANT                    WT FRACTION      ENERGY      TEMP
                                          (SEE NOTE)     KJ/KG-MOL      K  
             H2                           1.0000000         0.000      0.000

 O/F=    0.00000  %FUEL=100.000000  R,EQ.RATIO= 0.000000  PHI,EQ.RATIO= 0.000000

 THERMODYNAMIC PROPERTIES

 P, BAR           0.54000  0.54000  0.54000  0.54000  0.54000  0.54000  0.54000  0.54000
 T, K              350.00   355.00   360.00   365.00   370.00   375.00   380.00   385.00
 RHO, KG/CU M    3.7407-2 3.6880-2 3.6368-2 3.5870-2 3.5385-2 3.4913-2 3.4454-2 3.4007-2
 H, KJ/KG          745.34   817.50   889.70   961.93  1034.19  1106.47  1178.78  1251.12
 U, KJ/KG         -698.23  -646.69  -595.12  -543.51  -491.87  -440.21  -388.52  -336.81
 G, KJ/KG        -23639.9 -23988.7 -24338.6 -24689.4 -25041.3 -25394.2 -25748.0 -26102.8
 S, KJ/(KG)(K)    69.6720  69.8766  70.0785  70.2777  70.4744  70.6684  70.8600  71.0491

 M, (1/n)           2.016    2.016    2.016    2.016    2.016    2.016    2.016    2.016
 (dLV/dLP)t      -1.00000 -1.00000 -1.00000 -1.00000 -1.00000 -1.00000 -1.00000 -1.00000
 (dLV/dLT)p        1.0000   1.0000   1.0000   1.0000   1.0000   1.0000   1.0000   1.0000
 Cp, KJ/(KG)(K)   14.4287  14.4360  14.4427  14.4489  14.4545  14.4597  14.4644  14.4687
 GAMMAs            1.4003   1.4000   1.3997   1.3995   1.3993   1.3991   1.3989   1.3987
 SON VEL,M/SEC     1421.8   1431.7   1441.6   1451.5   1461.3   1471.0   1480.7   1490.3

 TRANSPORT PROPERTIES (GASES ONLY)
   CONDUCTIVITY IN UNITS OF MILLIWATTS/(CM)(K)

 VISC,MILLIPOISE  0.00000  0.00000  0.00001  0.00010  0.00064  0.00399  0.02067  0.06287

  WITH EQUILIBRIUM REACTIONS

 Cp, KJ/(KG)(K)   14.4287  14.4360  14.4427  14.4489  14.4545  14.4597  14.4644  14.4687
 CONDUCTIVITY      0.0000   0.0000   0.0001   0.0006   0.0040   0.0253   0.1485   0.6686
 PRANDTL NUMBER    2.3355   2.3360   2.3364   2.3356   2.3275   2.2751   2.0142   1.3605

  WITH FROZEN REACTIONS

 Cp, KJ/(KG)(K)   14.4287  14.4360  14.4427  14.4489  14.4545  14.4597  14.4644  14.4687
 CONDUCTIVITY      0.0000   0.0000   0.0001   0.0006   0.0040   0.0253   0.1485   0.6686
 PRANDTL NUMBER    2.3355   2.3360   2.3364   2.3356   2.3275   2.2751   2.0142   1.3605

 MOLE FRACTIONS

 *H2              1.00000  1.00000  1.00000  1.00000  1.00000  1.00000  1.00000  1.00000

  * THERMODYNAMIC PROPERTIES FITTED TO 20000.K

 NOTE. WEIGHT FRACTION OF FUEL IN TOTAL FUELS AND OF OXIDANT IN TOTAL OXIDANTS









               THERMODYNAMIC EQUILIBRIUM PROPERTIES AT ASSIGNED

                           TEMPERATURE AND PRESSURE

 CASE =                

             REACTANT                    WT FRACTION      ENERGY      TEMP
                                          (SEE NOTE)     KJ/KG-MOL      K  
             H2                           1.0000000         0.000      0.000

 O/F=    0.00000  %FUEL=100.000000  R,EQ.RATIO= 0.000000  PHI,EQ.RATIO= 0.000000

 THERMODYNAMIC PROPERTIES

 P, BAR           0.54000  0.54000  0.54000  0.54000  0.54000  0.54000  0.54000  0.60000
 T, K              390.00   395.00   400.00   405.00   410.00   415.00   420.00   350.00
 RHO, KG/CU M    3.3571-2 3.3146-2 3.2731-2 3.2327-2 3.1933-2 3.1548-2 3.1173-2 4.1564-2
 H, KJ/KG         1323.47  1395.84  1468.23  1540.64  1613.06  1685.49  1757.93   745.34
 U, KJ/KG         -285.08  -233.33  -181.56  -129.78  -77.984  -26.174   25.648  -698.23
 G, KJ/KG        -26458.5 -26815.1 -27172.7 -27531.1 -27890.5 -28250.7 -28611.9 -23487.7
 S, KJ/(KG)(K)    71.2358  71.4202  71.6023  71.7822  71.9599  72.1355  72.3090  69.2373

 M, (1/n)           2.016    2.016    2.016    2.016    2.016    2.016    2.016    2.016
 (dLV/dLP)t      -1.00000 -1.00000 -1.00000 -1.00000 -1.00000 -1.00000 -1.00000 -1.00000
 (dLV/dLT)p        1.0000   1.0000   1.0000   1.0000   1.0000   1.0000   1.0000   1.0000
 Cp, KJ/(KG)(K)   14.4726  14.4762  14.4795  14.4825  14.4852  14.4877  14.4900  14.4286
 GAMMAs            1.3986   1.3984   1.3983   1.3982   1.3981   1.3980   1.3979   1.4003
 SON VEL,M/SEC     1499.9   1509.4   1518.9   1528.3   1537.6   1546.9   1556.1   1421.8

 TRANSPORT PROPERTIES (GASES ONLY)
   CONDUCTIVITY IN UNITS OF MILLIWATTS/(CM)(K)

 VISC,MILLIPOISE  0.09564  0.10576  0.10852  0.10979  0.11078  0.11170  0.11262  0.00000

  WITH EQUILIBRIUM REACTIONS

 Cp, KJ/(KG)(K)   14.4726  14.4762  14.4795  14.4825  14.4852  14.4877  14.4900  14.4286
 CONDUCTIVITY      1.6031   2.1219   2.2662   2.3104   2.3345   2.3547   2.3741   0.0000
 PRANDTL NUMBER    0.8634   0.7215   0.6934   0.6882   0.6873   0.6873   0.6873   2.3355

  WITH FROZEN REACTIONS

 Cp, KJ/(KG)(K)   14.4726  14.4762  14.4795  14.4825  14.4852  14.4877  14.4900  14.4286
 CONDUCTIVITY      1.6031   2.1219   2.2662   2.3104   2.3345   2.3547   2.3741   0.0000
 PRANDTL NUMBER    0.8634   0.7215   0.6934   0.6882   0.6873   0.6873   0.6873   2.3355

 MOLE FRACTIONS

 *H2              1.00000  1.00000  1.00000  1.00000  1.00000  1.00000  1.00000  1.00000

  * THERMODYNAMIC PROPERTIES FITTED TO 20000.K

 NOTE. WEIGHT FRACTION OF FUEL IN TOTAL FUELS AND OF OXIDANT IN TOTAL OXIDANTS









               THERMODYNAMIC EQUILIBRIUM PROPERTIES AT ASSIGNED

                           TEMPERATURE AND PRESSURE

 CASE =                

             REACTANT                    WT FRACTION      ENERGY      TEMP
                                          (SEE NOTE)     KJ/KG-MOL      K  
             H2                           1.0000000         0.000      0.000

 O/F=    0.00000  %FUEL=100.000000  R,EQ.RATIO= 0.000000  PHI,EQ.RATIO= 0.000000

 THERMODYNAMIC PROPERTIES

 P, BAR           0.60000  0.60000  0.60000  0.60000  0.60000  0.60000  0.60000  0.60000
 T, K              355.00   360.00   365.00   370.00   375.00   380.00   385.00   390.00
 RHO, KG/CU M    4.0978-2 4.0409-2 3.9855-2 3.9317-2 3.8793-2 3.8282-2 3.7785-2 3.7301-2
 H, KJ/KG          817.50   889.70   961.93  1034.19  1106.47  1178.78  1251.12  1323.47
 U, KJ/KG         -646.69  -595.12  -543.51  -491.87  -440.21  -388.52  -336.81  -285.08
 G, KJ/KG        -23834.4 -24182.1 -24530.8 -24880.5 -25231.2 -25582.9 -25935.5 -26289.0
 S, KJ/(KG)(K)    69.4420  69.6439  69.8432  70.0398  70.2338  70.4254  70.6145  70.8012

 M, (1/n)           2.016    2.016    2.016    2.016    2.016    2.016    2.016    2.016
 (dLV/dLP)t      -1.00000 -1.00000 -1.00000 -1.00000 -1.00000 -1.00000 -1.00000 -1.00000
 (dLV/dLT)p        1.0000   1.0000   1.0000   1.0000   1.0000   1.0000   1.0000   1.0000
 Cp, KJ/(KG)(K)   14.4360  14.4427  14.4489  14.4545  14.4597  14.4644  14.4687  14.4726
 GAMMAs            1.4000   1.3997   1.3995   1.3993   1.3991   1.3989   1.3987   1.3986
 SON VEL,M/SEC     1431.7   1441.6   1451.5   1461.3   1471.0   1480.7   1490.3   1499.9

 TRANSPORT PROPERTIES (GASES ONLY)
   CONDUCTIVITY IN UNITS OF MILLIWATTS/(CM)(K)

 VISC,MILLIPOISE  0.00001  0.00004  0.00026  0.00172  0.01017  0.04201  0.08471  0.10258

  WITH EQUILIBRIUM REACTIONS

 Cp, KJ/(KG)(K)   14.4360  14.4427  14.4489  14.4545  14.4597  14.4644  14.4687  14.4726
 CONDUCTIVITY      0.0000   0.0002   0.0016   0.0108   0.0676   0.3619   1.2010   1.9628
 PRANDTL NUMBER    2.3360   2.3360   2.3330   2.3102   2.1771   1.6791   1.0205   0.7564

  WITH FROZEN REACTIONS

 Cp, KJ/(KG)(K)   14.4360  14.4427  14.4489  14.4545  14.4597  14.4644  14.4687  14.4726
 CONDUCTIVITY      0.0000   0.0002   0.0016   0.0108   0.0676   0.3619   1.2010   1.9628
 PRANDTL NUMBER    2.3360   2.3360   2.3330   2.3102   2.1771   1.6791   1.0205   0.7564

 MOLE FRACTIONS

 *H2              1.00000  1.00000  1.00000  1.00000  1.00000  1.00000  1.00000  1.00000

  * THERMODYNAMIC PROPERTIES FITTED TO 20000.K

 NOTE. WEIGHT FRACTION OF FUEL IN TOTAL FUELS AND OF OXIDANT IN TOTAL OXIDANTS









               THERMODYNAMIC EQUILIBRIUM PROPERTIES AT ASSIGNED

                           TEMPERATURE AND PRESSURE

 CASE =                

             REACTANT                    WT FRACTION      ENERGY      TEMP
                                          (SEE NOTE)     KJ/KG-MOL      K  
             H2                           1.0000000         0.000      0.000

 O/F=    0.00000  %FUEL=100.000000  R,EQ.RATIO= 0.000000  PHI,EQ.RATIO= 0.000000

 THERMODYNAMIC PROPERTIES

 P, BAR           0.60000  0.60000  0.60000  0.60000  0.60000  0.60000  0.67000  0.67000
 T, K              395.00   400.00   405.00   410.00   415.00   420.00   350.00   355.00
 RHO, KG/CU M    3.6829-2 3.6368-2 3.5919-2 3.5481-2 3.5054-2 3.4636-2 4.6413-2 4.5759-2
 H, KJ/KG         1395.84  1468.23  1540.64  1613.06  1685.49  1757.93   745.34   817.50
 U, KJ/KG         -233.33  -181.56  -129.78  -77.984  -26.174   25.648  -698.23  -646.69
 G, KJ/KG        -26643.5 -26998.9 -27355.2 -27712.3 -28070.4 -28429.3 -23328.4 -23672.8
 S, KJ/(KG)(K)    70.9856  71.1677  71.3476  71.5253  71.7009  71.8745  68.7822  68.9869

 M, (1/n)           2.016    2.016    2.016    2.016    2.016    2.016    2.016    2.016
 (dLV/dLP)t      -1.00000 -1.00000 -1.00000 -1.00000 -1.00000 -1.00000 -1.00000 -1.00000
 (dLV/dLT)p        1.0000   1.0000   1.0000   1.0000   1.0000   1.0000   1.0000   1.0000
 Cp, KJ/(KG)(K)   14.4762  14.4795  14.4825  14.4852  14.4877  14.4900  14.4286  14.4360
 GAMMAs            1.3984   1.3983   1.3982   1.3981   1.3980   1.3979   1.4003   1.4000
 SON VEL,M/SEC     1509.4   1518.9   1528.3   1537.6   1546.9   1556.1   1421.8   1431.7

 TRANSPORT PROPERTIES (GASES ONLY)
   CONDUCTIVITY IN UNITS OF MILLIWATTS/(CM)(K)

 VISC,MILLIPOISE  0.10718  0.10879  0.10984  0.11079  0.11170  0.11262  0.00000  0.00001

  WITH EQUILIBRIUM REACTIONS

 Cp, KJ/(KG)(K)   14.4762  14.4795  14.4825  14.4852  14.4877  14.4900  14.4286  14.4360
 CONDUCTIVITY      2.2175   2.2855   2.3141   2.3353   2.3549   2.3742   0.0000   0.0000
 PRANDTL NUMBER    0.6997   0.6893   0.6874   0.6872   0.6872   0.6873   2.3355   2.3360

  WITH FROZEN REACTIONS

 Cp, KJ/(KG)(K)   14.4762  14.4795  14.4825  14.4852  14.4877  14.4900  14.4286  14.4360
 CONDUCTIVITY      2.2175   2.2855   2.3141   2.3353   2.3549   2.3742   0.0000   0.0000
 PRANDTL NUMBER    0.6997   0.6893   0.6874   0.6872   0.6872   0.6873   2.3355   2.3360

 MOLE FRACTIONS

 *H2              1.00000  1.00000  1.00000  1.00000  1.00000  1.00000  1.00000  1.00000

  * THERMODYNAMIC PROPERTIES FITTED TO 20000.K

 NOTE. WEIGHT FRACTION OF FUEL IN TOTAL FUELS AND OF OXIDANT IN TOTAL OXIDANTS









               THERMODYNAMIC EQUILIBRIUM PROPERTIES AT ASSIGNED

                           TEMPERATURE AND PRESSURE

 CASE =                

             REACTANT                    WT FRACTION      ENERGY      TEMP
                                          (SEE NOTE)     KJ/KG-MOL      K  
             H2                           1.0000000         0.000      0.000

 O/F=    0.00000  %FUEL=100.000000  R,EQ.RATIO= 0.000000  PHI,EQ.RATIO= 0.000000

 THERMODYNAMIC PROPERTIES

 P, BAR           0.67000  0.67000  0.67000  0.67000  0.67000  0.67000  0.67000  0.67000
 T, K              360.00   365.00   370.00   375.00   380.00   385.00   390.00   395.00
 RHO, KG/CU M    4.5123-2 4.4505-2 4.3904-2 4.3319-2 4.2749-2 4.2193-2 4.1652-2 4.1125-2
 H, KJ/KG          889.70   961.93  1034.19  1106.47  1178.78  1251.12  1323.47  1395.84
 U, KJ/KG         -595.12  -543.51  -491.87  -440.21  -388.52  -336.81  -285.08  -233.33
 G, KJ/KG        -24018.3 -24364.7 -24712.1 -25060.5 -25409.9 -25760.2 -26111.5 -26463.7
 S, KJ/(KG)(K)    69.1888  69.3880  69.5847  69.7787  69.9703  70.1594  70.3461  70.5305

 M, (1/n)           2.016    2.016    2.016    2.016    2.016    2.016    2.016    2.016
 (dLV/dLP)t      -1.00000 -1.00000 -1.00000 -1.00000 -1.00000 -1.00000 -1.00000 -1.00000
 (dLV/dLT)p        1.0000   1.0000   1.0000   1.0000   1.0000   1.0000   1.0000   1.0000
 Cp, KJ/(KG)(K)   14.4427  14.4489  14.4545  14.4597  14.4644  14.4687  14.4726  14.4762
 GAMMAs            1.3997   1.3995   1.3993   1.3991   1.3989   1.3987   1.3986   1.3984
 SON VEL,M/SEC     1441.6   1451.5   1461.3   1471.0   1480.7   1490.3   1499.9   1509.4

 TRANSPORT PROPERTIES (GASES ONLY)
   CONDUCTIVITY IN UNITS OF MILLIWATTS/(CM)(K)

 VISC,MILLIPOISE  0.00004  0.00026  0.00172  0.01017  0.04201  0.08471  0.10258  0.10718

  WITH EQUILIBRIUM REACTIONS

 Cp, KJ/(KG)(K)   14.4427  14.4489  14.4545  14.4597  14.4644  14.4687  14.4726  14.4762
 CONDUCTIVITY      0.0002   0.0016   0.0108   0.0676   0.3619   1.2010   1.9628   2.2175
 PRANDTL NUMBER    2.3360   2.3330   2.3102   2.1771   1.6791   1.0205   0.7564   0.6997

  WITH FROZEN REACTIONS

 Cp, KJ/(KG)(K)   14.4427  14.4489  14.4545  14.4597  14.4644  14.4687  14.4726  14.4762
 CONDUCTIVITY      0.0002   0.0016   0.0108   0.0676   0.3619   1.2010   1.9628   2.2175
 PRANDTL NUMBER    2.3360   2.3330   2.3102   2.1771   1.6791   1.0205   0.7564   0.6997

 MOLE FRACTIONS

 *H2              1.00000  1.00000  1.00000  1.00000  1.00000  1.00000  1.00000  1.00000

  * THERMODYNAMIC PROPERTIES FITTED TO 20000.K

 NOTE. WEIGHT FRACTION OF FUEL IN TOTAL FUELS AND OF OXIDANT IN TOTAL OXIDANTS









               THERMODYNAMIC EQUILIBRIUM PROPERTIES AT ASSIGNED

                           TEMPERATURE AND PRESSURE

 CASE =                

             REACTANT                    WT FRACTION      ENERGY      TEMP
                                          (SEE NOTE)     KJ/KG-MOL      K  
             H2                           1.0000000         0.000      0.000

 O/F=    0.00000  %FUEL=100.000000  R,EQ.RATIO= 0.000000  PHI,EQ.RATIO= 0.000000

 THERMODYNAMIC PROPERTIES

 P, BAR           0.67000  0.67000  0.67000  0.67000  0.67000  0.74000  0.74000  0.74000
 T, K              400.00   405.00   410.00   415.00   420.00   350.00   355.00   360.00
 RHO, KG/CU M    4.0611-2 4.0110-2 3.9621-2 3.9143-2 3.8677-2 5.1262-2 5.0540-2 4.9838-2
 H, KJ/KG         1468.23  1540.64  1613.06  1685.49  1757.93   745.34   817.50   889.70
 U, KJ/KG         -181.56  -129.78  -77.984  -26.174   25.648  -698.23  -646.69  -595.12
 G, KJ/KG        -26816.8 -27170.8 -27525.7 -27881.5 -28238.2 -23185.0 -23527.3 -23870.7
 S, KJ/(KG)(K)    70.7126  70.8925  71.0702  71.2458  71.4193  68.3723  68.5770  68.7789

 M, (1/n)           2.016    2.016    2.016    2.016    2.016    2.016    2.016    2.016
 (dLV/dLP)t      -1.00000 -1.00000 -1.00000 -1.00000 -1.00000 -1.00000 -1.00000 -1.00000
 (dLV/dLT)p        1.0000   1.0000   1.0000   1.0000   1.0000   1.0000   1.0000   1.0000
 Cp, KJ/(KG)(K)   14.4795  14.4825  14.4852  14.4877  14.4900  14.4286  14.4360  14.4427
 GAMMAs            1.3983   1.3982   1.3981   1.3980   1.3979   1.4003   1.4000   1.3997
 SON VEL,M/SEC     1518.9   1528.3   1537.6   1546.9   1556.1   1421.8   1431.7   1441.6

 TRANSPORT PROPERTIES (GASES ONLY)
   CONDUCTIVITY IN UNITS OF MILLIWATTS/(CM)(K)

 VISC,MILLIPOISE  0.10879  0.10984  0.11079  0.11170  0.11262  0.00000  0.00001  0.00004

  WITH EQUILIBRIUM REACTIONS

 Cp, KJ/(KG)(K)   14.4795  14.4825  14.4852  14.4877  14.4900  14.4286  14.4360  14.4427
 CONDUCTIVITY      2.2855   2.3141   2.3353   2.3549   2.3742   0.0000   0.0000   0.0002
 PRANDTL NUMBER    0.6893   0.6874   0.6872   0.6872   0.6873   2.3355   2.3360   2.3360

  WITH FROZEN REACTIONS

 Cp, KJ/(KG)(K)   14.4795  14.4825  14.4852  14.4877  14.4900  14.4286  14.4360  14.4427
 CONDUCTIVITY      2.2855   2.3141   2.3353   2.3549   2.3742   0.0000   0.0000   0.0002
 PRANDTL NUMBER    0.6893   0.6874   0.6872   0.6872   0.6873   2.3355   2.3360   2.3360

 MOLE FRACTIONS

 *H2              1.00000  1.00000  1.00000  1.00000  1.00000  1.00000  1.00000  1.00000

  * THERMODYNAMIC PROPERTIES FITTED TO 20000.K

 NOTE. WEIGHT FRACTION OF FUEL IN TOTAL FUELS AND OF OXIDANT IN TOTAL OXIDANTS









               THERMODYNAMIC EQUILIBRIUM PROPERTIES AT ASSIGNED

                           TEMPERATURE AND PRESSURE

 CASE =                

             REACTANT                    WT FRACTION      ENERGY      TEMP
                                          (SEE NOTE)     KJ/KG-MOL      K  
             H2                           1.0000000         0.000      0.000

 O/F=    0.00000  %FUEL=100.000000  R,EQ.RATIO= 0.000000  PHI,EQ.RATIO= 0.000000

 THERMODYNAMIC PROPERTIES

 P, BAR           0.74000  0.74000  0.74000  0.74000  0.74000  0.74000  0.74000  0.74000
 T, K              365.00   370.00   375.00   380.00   385.00   390.00   395.00   400.00
 RHO, KG/CU M    4.9155-2 4.8491-2 4.7844-2 4.7215-2 4.6602-2 4.6004-2 4.5422-2 4.4854-2
 H, KJ/KG          961.93  1034.19  1106.47  1178.78  1251.12  1323.47  1395.84  1468.23
 U, KJ/KG         -543.51  -491.87  -440.21  -388.52  -336.81  -285.08  -233.33  -181.56
 G, KJ/KG        -24215.1 -24560.5 -24906.8 -25254.2 -25602.4 -25951.7 -26301.8 -26652.9
 S, KJ/(KG)(K)    68.9782  69.1748  69.3689  69.5604  69.7495  69.9362  70.1206  70.3027

 M, (1/n)           2.016    2.016    2.016    2.016    2.016    2.016    2.016    2.016
 (dLV/dLP)t      -1.00000 -1.00000 -1.00000 -1.00000 -1.00000 -1.00000 -1.00000 -1.00000
 (dLV/dLT)p        1.0000   1.0000   1.0000   1.0000   1.0000   1.0000   1.0000   1.0000
 Cp, KJ/(KG)(K)   14.4489  14.4545  14.4597  14.4644  14.4687  14.4726  14.4762  14.4795
 GAMMAs            1.3995   1.3993   1.3991   1.3989   1.3987   1.3986   1.3984   1.3983
 SON VEL,M/SEC     1451.5   1461.3   1471.0   1480.7   1490.3   1499.9   1509.4   1518.9

 TRANSPORT PROPERTIES (GASES ONLY)
   CONDUCTIVITY IN UNITS OF MILLIWATTS/(CM)(K)

 VISC,MILLIPOISE  0.00026  0.00172  0.01017  0.04201  0.08471  0.10258  0.10718  0.10879

  WITH EQUILIBRIUM REACTIONS

 Cp, KJ/(KG)(K)   14.4489  14.4545  14.4597  14.4644  14.4687  14.4726  14.4762  14.4795
 CONDUCTIVITY      0.0016   0.0108   0.0676   0.3619   1.2010   1.9628   2.2175   2.2855
 PRANDTL NUMBER    2.3330   2.3102   2.1771   1.6791   1.0205   0.7564   0.6997   0.6893

  WITH FROZEN REACTIONS

 Cp, KJ/(KG)(K)   14.4489  14.4545  14.4597  14.4644  14.4687  14.4726  14.4762  14.4795
 CONDUCTIVITY      0.0016   0.0108   0.0676   0.3619   1.2010   1.9628   2.2175   2.2855
 PRANDTL NUMBER    2.3330   2.3102   2.1771   1.6791   1.0205   0.7564   0.6997   0.6893

 MOLE FRACTIONS

 *H2              1.00000  1.00000  1.00000  1.00000  1.00000  1.00000  1.00000  1.00000

  * THERMODYNAMIC PROPERTIES FITTED TO 20000.K

 NOTE. WEIGHT FRACTION OF FUEL IN TOTAL FUELS AND OF OXIDANT IN TOTAL OXIDANTS









               THERMODYNAMIC EQUILIBRIUM PROPERTIES AT ASSIGNED

                           TEMPERATURE AND PRESSURE

 CASE =                

             REACTANT                    WT FRACTION      ENERGY      TEMP
                                          (SEE NOTE)     KJ/KG-MOL      K  
             H2                           1.0000000         0.000      0.000

 O/F=    0.00000  %FUEL=100.000000  R,EQ.RATIO= 0.000000  PHI,EQ.RATIO= 0.000000

 THERMODYNAMIC PROPERTIES

 P, BAR           0.74000  0.74000  0.74000  0.74000  0.82500  0.82500  0.82500  0.82500
 T, K              405.00   410.00   415.00   420.00   350.00   355.00   360.00   365.00
 RHO, KG/CU M    4.4300-2 4.3760-2 4.3233-2 4.2718-2 5.7150-2 5.6345-2 5.5562-2 5.4801-2
 H, KJ/KG         1540.64  1613.06  1685.49  1757.93   745.34   817.50   889.70   961.93
 U, KJ/KG         -129.78  -77.984  -26.174   25.648  -698.23  -646.69  -595.12  -543.51
 G, KJ/KG        -27004.8 -27357.7 -27711.4 -28066.0 -23028.0 -23368.1 -23709.3 -24051.4
 S, KJ/(KG)(K)    70.4826  70.6604  70.8359  71.0095  67.9239  68.1285  68.3305  68.5297

 M, (1/n)           2.016    2.016    2.016    2.016    2.016    2.016    2.016    2.016
 (dLV/dLP)t      -1.00000 -1.00000 -1.00000 -1.00000 -1.00000 -1.00000 -1.00000 -1.00000
 (dLV/dLT)p        1.0000   1.0000   1.0000   1.0000   1.0000   1.0000   1.0000   1.0000
 Cp, KJ/(KG)(K)   14.4825  14.4852  14.4877  14.4900  14.4286  14.4360  14.4427  14.4489
 GAMMAs            1.3982   1.3981   1.3980   1.3979   1.4003   1.4000   1.3997   1.3995
 SON VEL,M/SEC     1528.3   1537.6   1546.9   1556.1   1421.8   1431.7   1441.6   1451.5

 TRANSPORT PROPERTIES (GASES ONLY)
   CONDUCTIVITY IN UNITS OF MILLIWATTS/(CM)(K)

 VISC,MILLIPOISE  0.10984  0.11079  0.11170  0.11262  0.00000  0.00001  0.00004  0.00026

  WITH EQUILIBRIUM REACTIONS

 Cp, KJ/(KG)(K)   14.4825  14.4852  14.4877  14.4900  14.4286  14.4360  14.4427  14.4489
 CONDUCTIVITY      2.3141   2.3353   2.3549   2.3742   0.0000   0.0000   0.0002   0.0016
 PRANDTL NUMBER    0.6874   0.6872   0.6872   0.6873   2.3355   2.3360   2.3360   2.3330

  WITH FROZEN REACTIONS

 Cp, KJ/(KG)(K)   14.4825  14.4852  14.4877  14.4900  14.4286  14.4360  14.4427  14.4489
 CONDUCTIVITY      2.3141   2.3353   2.3549   2.3742   0.0000   0.0000   0.0002   0.0016
 PRANDTL NUMBER    0.6874   0.6872   0.6872   0.6873   2.3355   2.3360   2.3360   2.3330

 MOLE FRACTIONS

 *H2              1.00000  1.00000  1.00000  1.00000  1.00000  1.00000  1.00000  1.00000

  * THERMODYNAMIC PROPERTIES FITTED TO 20000.K

 NOTE. WEIGHT FRACTION OF FUEL IN TOTAL FUELS AND OF OXIDANT IN TOTAL OXIDANTS









               THERMODYNAMIC EQUILIBRIUM PROPERTIES AT ASSIGNED

                           TEMPERATURE AND PRESSURE

 CASE =                

             REACTANT                    WT FRACTION      ENERGY      TEMP
                                          (SEE NOTE)     KJ/KG-MOL      K  
             H2                           1.0000000         0.000      0.000

 O/F=    0.00000  %FUEL=100.000000  R,EQ.RATIO= 0.000000  PHI,EQ.RATIO= 0.000000

 THERMODYNAMIC PROPERTIES

 P, BAR           0.82500  0.82500  0.82500  0.82500  0.82500  0.82500  0.82500  0.82500
 T, K              370.00   375.00   380.00   385.00   390.00   395.00   400.00   405.00
 RHO, KG/CU M    5.4061-2 5.3340-2 5.2638-2 5.1954-2 5.1288-2 5.0639-2 5.0006-2 4.9389-2
 H, KJ/KG         1034.19  1106.47  1178.78  1251.12  1323.47  1395.84  1468.23  1540.64
 U, KJ/KG         -491.87  -440.21  -388.52  -336.81  -285.08  -233.33  -181.56  -129.78
 G, KJ/KG        -24394.6 -24738.7 -25083.8 -25429.8 -25776.8 -26124.7 -26473.5 -26823.2
 S, KJ/(KG)(K)    68.7263  68.9204  69.1119  69.3010  69.4878  69.6722  69.8543  70.0342

 M, (1/n)           2.016    2.016    2.016    2.016    2.016    2.016    2.016    2.016
 (dLV/dLP)t      -1.00000 -1.00000 -1.00000 -1.00000 -1.00000 -1.00000 -1.00000 -1.00000
 (dLV/dLT)p        1.0000   1.0000   1.0000   1.0000   1.0000   1.0000   1.0000   1.0000
 Cp, KJ/(KG)(K)   14.4545  14.4597  14.4644  14.4687  14.4726  14.4762  14.4795  14.4825
 GAMMAs            1.3993   1.3991   1.3989   1.3987   1.3986   1.3984   1.3983   1.3982
 SON VEL,M/SEC     1461.3   1471.0   1480.7   1490.3   1499.9   1509.4   1518.9   1528.3

 TRANSPORT PROPERTIES (GASES ONLY)
   CONDUCTIVITY IN UNITS OF MILLIWATTS/(CM)(K)

 VISC,MILLIPOISE  0.00172  0.01017  0.04201  0.08471  0.10258  0.10718  0.10879  0.10984

  WITH EQUILIBRIUM REACTIONS

 Cp, KJ/(KG)(K)   14.4545  14.4597  14.4644  14.4687  14.4726  14.4762  14.4795  14.4825
 CONDUCTIVITY      0.0108   0.0676   0.3619   1.2010   1.9628   2.2175   2.2855   2.3141
 PRANDTL NUMBER    2.3102   2.1771   1.6791   1.0205   0.7564   0.6997   0.6893   0.6874

  WITH FROZEN REACTIONS

 Cp, KJ/(KG)(K)   14.4545  14.4597  14.4644  14.4687  14.4726  14.4762  14.4795  14.4825
 CONDUCTIVITY      0.0108   0.0676   0.3619   1.2010   1.9628   2.2175   2.2855   2.3141
 PRANDTL NUMBER    2.3102   2.1771   1.6791   1.0205   0.7564   0.6997   0.6893   0.6874

 MOLE FRACTIONS

 *H2              1.00000  1.00000  1.00000  1.00000  1.00000  1.00000  1.00000  1.00000

  * THERMODYNAMIC PROPERTIES FITTED TO 20000.K

 NOTE. WEIGHT FRACTION OF FUEL IN TOTAL FUELS AND OF OXIDANT IN TOTAL OXIDANTS









               THERMODYNAMIC EQUILIBRIUM PROPERTIES AT ASSIGNED

                           TEMPERATURE AND PRESSURE

 CASE =                

             REACTANT                    WT FRACTION      ENERGY      TEMP
                                          (SEE NOTE)     KJ/KG-MOL      K  
             H2                           1.0000000         0.000      0.000

 O/F=    0.00000  %FUEL=100.000000  R,EQ.RATIO= 0.000000  PHI,EQ.RATIO= 0.000000

 THERMODYNAMIC PROPERTIES

 P, BAR           0.82500  0.82500  0.82500  0.91000  0.91000  0.91000  0.91000  0.91000
 T, K              410.00   415.00   420.00   350.00   355.00   360.00   365.00   370.00
 RHO, KG/CU M    4.8787-2 4.8199-2 4.7625-2 6.3038-2 6.2150-2 6.1287-2 6.0448-2 5.9631-2
 H, KJ/KG         1613.06  1685.49  1757.93   745.34   817.50   889.70   961.93  1034.19
 U, KJ/KG         -77.984  -26.174   25.648  -698.23  -646.69  -595.12  -543.51  -491.87
 G, KJ/KG        -27173.8 -27525.3 -27877.7 -22886.4 -23224.5 -23563.7 -23903.8 -24244.9
 S, KJ/(KG)(K)    70.2119  70.3875  70.5610  67.5194  67.7241  67.9260  68.1253  68.3219

 M, (1/n)           2.016    2.016    2.016    2.016    2.016    2.016    2.016    2.016
 (dLV/dLP)t      -1.00000 -1.00000 -1.00000 -1.00000 -1.00000 -1.00000 -1.00000 -1.00000
 (dLV/dLT)p        1.0000   1.0000   1.0000   1.0000   1.0000   1.0000   1.0000   1.0000
 Cp, KJ/(KG)(K)   14.4852  14.4877  14.4900  14.4286  14.4360  14.4427  14.4489  14.4545
 GAMMAs            1.3981   1.3980   1.3979   1.4003   1.4000   1.3997   1.3995   1.3993
 SON VEL,M/SEC     1537.6   1546.9   1556.1   1421.8   1431.7   1441.6   1451.5   1461.3

 TRANSPORT PROPERTIES (GASES ONLY)
   CONDUCTIVITY IN UNITS OF MILLIWATTS/(CM)(K)

 VISC,MILLIPOISE  0.11079  0.11170  0.11262  0.00000  0.00001  0.00004  0.00026  0.00172

  WITH EQUILIBRIUM REACTIONS

 Cp, KJ/(KG)(K)   14.4852  14.4877  14.4900  14.4286  14.4360  14.4427  14.4489  14.4545
 CONDUCTIVITY      2.3353   2.3549   2.3742   0.0000   0.0000   0.0002   0.0016   0.0108
 PRANDTL NUMBER    0.6872   0.6872   0.6873   2.3355   2.3360   2.3360   2.3330   2.3102

  WITH FROZEN REACTIONS

 Cp, KJ/(KG)(K)   14.4852  14.4877  14.4900  14.4286  14.4360  14.4427  14.4489  14.4545
 CONDUCTIVITY      2.3353   2.3549   2.3742   0.0000   0.0000   0.0002   0.0016   0.0108
 PRANDTL NUMBER    0.6872   0.6872   0.6873   2.3355   2.3360   2.3360   2.3330   2.3102

 MOLE FRACTIONS

 *H2              1.00000  1.00000  1.00000  1.00000  1.00000  1.00000  1.00000  1.00000

  * THERMODYNAMIC PROPERTIES FITTED TO 20000.K

 NOTE. WEIGHT FRACTION OF FUEL IN TOTAL FUELS AND OF OXIDANT IN TOTAL OXIDANTS









               THERMODYNAMIC EQUILIBRIUM PROPERTIES AT ASSIGNED

                           TEMPERATURE AND PRESSURE

 CASE =                

             REACTANT                    WT FRACTION      ENERGY      TEMP
                                          (SEE NOTE)     KJ/KG-MOL      K  
             H2                           1.0000000         0.000      0.000

 O/F=    0.00000  %FUEL=100.000000  R,EQ.RATIO= 0.000000  PHI,EQ.RATIO= 0.000000

 THERMODYNAMIC PROPERTIES

 P, BAR           0.91000  0.91000  0.91000  0.91000  0.91000  0.91000  0.91000  0.91000
 T, K              375.00   380.00   385.00   390.00   395.00   400.00   405.00   410.00
 RHO, KG/CU M    5.8836-2 5.8061-2 5.7307-2 5.6573-2 5.5857-2 5.5158-2 5.4477-2 5.3813-2
 H, KJ/KG         1106.47  1178.78  1251.12  1323.47  1395.84  1468.23  1540.64  1613.06
 U, KJ/KG         -440.21  -388.52  -336.81  -285.08  -233.33  -181.56  -129.78  -77.984
 G, KJ/KG        -24587.0 -24930.1 -25274.1 -25619.0 -25964.9 -26311.7 -26659.4 -27008.0
 S, KJ/(KG)(K)    68.5159  68.7075  68.8966  69.0833  69.2677  69.4498  69.6297  69.8074

 M, (1/n)           2.016    2.016    2.016    2.016    2.016    2.016    2.016    2.016
 (dLV/dLP)t      -1.00000 -1.00000 -1.00000 -1.00000 -1.00000 -1.00000 -1.00000 -1.00000
 (dLV/dLT)p        1.0000   1.0000   1.0000   1.0000   1.0000   1.0000   1.0000   1.0000
 Cp, KJ/(KG)(K)   14.4597  14.4644  14.4687  14.4726  14.4762  14.4795  14.4825  14.4852
 GAMMAs            1.3991   1.3989   1.3987   1.3986   1.3984   1.3983   1.3982   1.3981
 SON VEL,M/SEC     1471.0   1480.7   1490.3   1499.9   1509.4   1518.9   1528.3   1537.6

 TRANSPORT PROPERTIES (GASES ONLY)
   CONDUCTIVITY IN UNITS OF MILLIWATTS/(CM)(K)

 VISC,MILLIPOISE  0.01017  0.04201  0.08471  0.10258  0.10718  0.10879  0.10984  0.11079

  WITH EQUILIBRIUM REACTIONS

 Cp, KJ/(KG)(K)   14.4597  14.4644  14.4687  14.4726  14.4762  14.4795  14.4825  14.4852
 CONDUCTIVITY      0.0676   0.3619   1.2010   1.9628   2.2175   2.2855   2.3141   2.3353
 PRANDTL NUMBER    2.1771   1.6791   1.0205   0.7564   0.6997   0.6893   0.6874   0.6872

  WITH FROZEN REACTIONS

 Cp, KJ/(KG)(K)   14.4597  14.4644  14.4687  14.4726  14.4762  14.4795  14.4825  14.4852
 CONDUCTIVITY      0.0676   0.3619   1.2010   1.9628   2.2175   2.2855   2.3141   2.3353
 PRANDTL NUMBER    2.1771   1.6791   1.0205   0.7564   0.6997   0.6893   0.6874   0.6872

 MOLE FRACTIONS

 *H2              1.00000  1.00000  1.00000  1.00000  1.00000  1.00000  1.00000  1.00000

  * THERMODYNAMIC PROPERTIES FITTED TO 20000.K

 NOTE. WEIGHT FRACTION OF FUEL IN TOTAL FUELS AND OF OXIDANT IN TOTAL OXIDANTS









               THERMODYNAMIC EQUILIBRIUM PROPERTIES AT ASSIGNED

                           TEMPERATURE AND PRESSURE

 CASE =                

             REACTANT                    WT FRACTION      ENERGY      TEMP
                                          (SEE NOTE)     KJ/KG-MOL      K  
             H2                           1.0000000         0.000      0.000

 O/F=    0.00000  %FUEL=100.000000  R,EQ.RATIO= 0.000000  PHI,EQ.RATIO= 0.000000

 THERMODYNAMIC PROPERTIES

 P, BAR           0.91000  0.91000   1.0000   1.0000   1.0000   1.0000   1.0000   1.0000
 T, K              415.00   420.00   350.00   355.00   360.00   365.00   370.00   375.00
 RHO, KG/CU M    5.3165-2 5.2532-2 6.9273-2 6.8297-2 6.7348-2 6.6426-2 6.5528-2 6.4654-2
 H, KJ/KG         1685.49  1757.93   745.34   817.50   889.70   961.93  1034.19  1106.47
 U, KJ/KG         -26.174   25.648  -698.23  -646.69  -595.12  -543.51  -491.87  -440.21
 G, KJ/KG        -27357.5 -27707.8 -22750.3 -23086.5 -23423.6 -23761.8 -24101.0 -24441.1
 S, KJ/(KG)(K)    69.9830  70.1565  67.1304  67.3351  67.5370  67.7363  67.9329  68.1269

 M, (1/n)           2.016    2.016    2.016    2.016    2.016    2.016    2.016    2.016
 (dLV/dLP)t      -1.00000 -1.00000 -1.00000 -1.00000 -1.00000 -1.00000 -1.00000 -1.00000
 (dLV/dLT)p        1.0000   1.0000   1.0000   1.0000   1.0000   1.0000   1.0000   1.0000
 Cp, KJ/(KG)(K)   14.4877  14.4900  14.4286  14.4360  14.4427  14.4489  14.4545  14.4597
 GAMMAs            1.3980   1.3979   1.4003   1.4000   1.3997   1.3995   1.3993   1.3991
 SON VEL,M/SEC     1546.9   1556.1   1421.8   1431.7   1441.6   1451.5   1461.3   1471.0

 TRANSPORT PROPERTIES (GASES ONLY)
   CONDUCTIVITY IN UNITS OF MILLIWATTS/(CM)(K)

 VISC,MILLIPOISE  0.11170  0.11262  0.00000  0.00001  0.00004  0.00026  0.00172  0.01017

  WITH EQUILIBRIUM REACTIONS

 Cp, KJ/(KG)(K)   14.4877  14.4900  14.4286  14.4360  14.4427  14.4489  14.4545  14.4597
 CONDUCTIVITY      2.3549   2.3742   0.0000   0.0000   0.0002   0.0016   0.0108   0.0676
 PRANDTL NUMBER    0.6872   0.6873   2.3355   2.3360   2.3360   2.3330   2.3102   2.1771

  WITH FROZEN REACTIONS

 Cp, KJ/(KG)(K)   14.4877  14.4900  14.4286  14.4360  14.4427  14.4489  14.4545  14.4597
 CONDUCTIVITY      2.3549   2.3742   0.0000   0.0000   0.0002   0.0016   0.0108   0.0676
 PRANDTL NUMBER    0.6872   0.6873   2.3355   2.3360   2.3360   2.3330   2.3102   2.1771

 MOLE FRACTIONS

 *H2              1.00000  1.00000  1.00000  1.00000  1.00000  1.00000  1.00000  1.00000

  * THERMODYNAMIC PROPERTIES FITTED TO 20000.K

 NOTE. WEIGHT FRACTION OF FUEL IN TOTAL FUELS AND OF OXIDANT IN TOTAL OXIDANTS









               THERMODYNAMIC EQUILIBRIUM PROPERTIES AT ASSIGNED

                           TEMPERATURE AND PRESSURE

 CASE =                

             REACTANT                    WT FRACTION      ENERGY      TEMP
                                          (SEE NOTE)     KJ/KG-MOL      K  
             H2                           1.0000000         0.000      0.000

 O/F=    0.00000  %FUEL=100.000000  R,EQ.RATIO= 0.000000  PHI,EQ.RATIO= 0.000000

 THERMODYNAMIC PROPERTIES

 P, BAR            1.0000   1.0000   1.0000   1.0000   1.0000   1.0000   1.0000   1.0000
 T, K              380.00   385.00   390.00   395.00   400.00   405.00   410.00   415.00
 RHO, KG/CU M    6.3804-2 6.2975-2 6.2168-2 6.1381-2 6.0614-2 5.9865-2 5.9135-2 5.8423-2
 H, KJ/KG         1178.78  1251.12  1323.47  1395.84  1468.23  1540.64  1613.06  1685.49
 U, KJ/KG         -388.52  -336.81  -285.08  -233.33  -181.56  -129.78  -77.984  -26.174
 G, KJ/KG        -24782.2 -25124.3 -25467.3 -25811.3 -26156.1 -26501.9 -26848.5 -27196.0
 S, KJ/(KG)(K)    68.3185  68.5076  68.6943  68.8787  69.0608  69.2407  69.4184  69.5940

 M, (1/n)           2.016    2.016    2.016    2.016    2.016    2.016    2.016    2.016
 (dLV/dLP)t      -1.00000 -1.00000 -1.00000 -1.00000 -1.00000 -1.00000 -1.00000 -1.00000
 (dLV/dLT)p        1.0000   1.0000   1.0000   1.0000   1.0000   1.0000   1.0000   1.0000
 Cp, KJ/(KG)(K)   14.4644  14.4687  14.4726  14.4762  14.4795  14.4825  14.4852  14.4877
 GAMMAs            1.3989   1.3987   1.3986   1.3984   1.3983   1.3982   1.3981   1.3980
 SON VEL,M/SEC     1480.7   1490.3   1499.9   1509.4   1518.9   1528.3   1537.6   1546.9

 TRANSPORT PROPERTIES (GASES ONLY)
   CONDUCTIVITY IN UNITS OF MILLIWATTS/(CM)(K)

 VISC,MILLIPOISE  0.04201  0.08471  0.10258  0.10718  0.10879  0.10984  0.11079  0.11170

  WITH EQUILIBRIUM REACTIONS

 Cp, KJ/(KG)(K)   14.4644  14.4687  14.4726  14.4762  14.4795  14.4825  14.4852  14.4877
 CONDUCTIVITY      0.3619   1.2010   1.9628   2.2175   2.2855   2.3141   2.3353   2.3549
 PRANDTL NUMBER    1.6791   1.0205   0.7564   0.6997   0.6893   0.6874   0.6872   0.6872

  WITH FROZEN REACTIONS

 Cp, KJ/(KG)(K)   14.4644  14.4687  14.4726  14.4762  14.4795  14.4825  14.4852  14.4877
 CONDUCTIVITY      0.3619   1.2010   1.9628   2.2175   2.2855   2.3141   2.3353   2.3549
 PRANDTL NUMBER    1.6791   1.0205   0.7564   0.6997   0.6893   0.6874   0.6872   0.6872

 MOLE FRACTIONS

 *H2              1.00000  1.00000  1.00000  1.00000  1.00000  1.00000  1.00000  1.00000

  * THERMODYNAMIC PROPERTIES FITTED TO 20000.K

 NOTE. WEIGHT FRACTION OF FUEL IN TOTAL FUELS AND OF OXIDANT IN TOTAL OXIDANTS









               THERMODYNAMIC EQUILIBRIUM PROPERTIES AT ASSIGNED

                           TEMPERATURE AND PRESSURE

 CASE =                

             REACTANT                    WT FRACTION      ENERGY      TEMP
                                          (SEE NOTE)     KJ/KG-MOL      K  
             H2                           1.0000000         0.000      0.000

 O/F=    0.00000  %FUEL=100.000000  R,EQ.RATIO= 0.000000  PHI,EQ.RATIO= 0.000000

 THERMODYNAMIC PROPERTIES

 P, BAR            1.0000   1.1000   1.1000   1.1000   1.1000   1.1000   1.1000   1.1000
 T, K              420.00   350.00   355.00   360.00   365.00   370.00   375.00   380.00
 RHO, KG/CU M    5.7727-2 7.6200-2 7.5127-2 7.4083-2 7.3068-2 7.2081-2 7.1120-2 7.0184-2
 H, KJ/KG         1757.93   745.34   817.50   889.70   961.93  1034.19  1106.47  1178.78
 U, KJ/KG          25.648  -698.23  -646.69  -595.12  -543.51  -491.87  -440.21  -388.52
 G, KJ/KG        -27544.4 -22612.7 -22946.9 -23282.1 -23618.3 -23955.5 -24293.7 -24632.9
 S, KJ/(KG)(K)    69.7676  66.7373  66.9420  67.1439  67.3432  67.5398  67.7338  67.9254

 M, (1/n)           2.016    2.016    2.016    2.016    2.016    2.016    2.016    2.016
 (dLV/dLP)t      -1.00000 -1.00000 -1.00000 -1.00000 -1.00000 -1.00000 -1.00000 -1.00000
 (dLV/dLT)p        1.0000   1.0000   1.0000   1.0000   1.0000   1.0000   1.0000   1.0000
 Cp, KJ/(KG)(K)   14.4900  14.4286  14.4360  14.4427  14.4489  14.4545  14.4597  14.4644
 GAMMAs            1.3979   1.4003   1.4000   1.3997   1.3995   1.3993   1.3991   1.3989
 SON VEL,M/SEC     1556.1   1421.8   1431.7   1441.6   1451.5   1461.3   1471.0   1480.7

 TRANSPORT PROPERTIES (GASES ONLY)
   CONDUCTIVITY IN UNITS OF MILLIWATTS/(CM)(K)

 VISC,MILLIPOISE  0.11262  0.00000  0.00001  0.00004  0.00026  0.00172  0.01017  0.04201

  WITH EQUILIBRIUM REACTIONS

 Cp, KJ/(KG)(K)   14.4900  14.4286  14.4360  14.4427  14.4489  14.4545  14.4597  14.4644
 CONDUCTIVITY      2.3742   0.0000   0.0000   0.0002   0.0016   0.0108   0.0676   0.3619
 PRANDTL NUMBER    0.6873   2.3355   2.3360   2.3360   2.3330   2.3102   2.1771   1.6791

  WITH FROZEN REACTIONS

 Cp, KJ/(KG)(K)   14.4900  14.4286  14.4360  14.4427  14.4489  14.4545  14.4597  14.4644
 CONDUCTIVITY      2.3742   0.0000   0.0000   0.0002   0.0016   0.0108   0.0676   0.3619
 PRANDTL NUMBER    0.6873   2.3355   2.3360   2.3360   2.3330   2.3102   2.1771   1.6791

 MOLE FRACTIONS

 *H2              1.00000  1.00000  1.00000  1.00000  1.00000  1.00000  1.00000  1.00000

  * THERMODYNAMIC PROPERTIES FITTED TO 20000.K

 NOTE. WEIGHT FRACTION OF FUEL IN TOTAL FUELS AND OF OXIDANT IN TOTAL OXIDANTS









               THERMODYNAMIC EQUILIBRIUM PROPERTIES AT ASSIGNED

                           TEMPERATURE AND PRESSURE

 CASE =                

             REACTANT                    WT FRACTION      ENERGY      TEMP
                                          (SEE NOTE)     KJ/KG-MOL      K  
             H2                           1.0000000         0.000      0.000

 O/F=    0.00000  %FUEL=100.000000  R,EQ.RATIO= 0.000000  PHI,EQ.RATIO= 0.000000

 THERMODYNAMIC PROPERTIES

 P, BAR            1.1000   1.1000   1.1000   1.1000   1.1000   1.1000   1.1000   1.1000
 T, K              385.00   390.00   395.00   400.00   405.00   410.00   415.00   420.00
 RHO, KG/CU M    6.9273-2 6.8385-2 6.7519-2 6.6675-2 6.5852-2 6.5049-2 6.4265-2 6.3500-2
 H, KJ/KG         1251.12  1323.47  1395.84  1468.23  1540.64  1613.06  1685.49  1757.93
 U, KJ/KG         -336.81  -285.08  -233.33  -181.56  -129.78  -77.984  -26.174   25.648
 G, KJ/KG        -24973.0 -25314.0 -25656.0 -25998.9 -26342.6 -26687.3 -27032.9 -27379.3
 S, KJ/(KG)(K)    68.1145  68.3012  68.4856  68.6677  68.8476  69.0253  69.2009  69.3745

 M, (1/n)           2.016    2.016    2.016    2.016    2.016    2.016    2.016    2.016
 (dLV/dLP)t      -1.00000 -1.00000 -1.00000 -1.00000 -1.00000 -1.00000 -1.00000 -1.00000
 (dLV/dLT)p        1.0000   1.0000   1.0000   1.0000   1.0000   1.0000   1.0000   1.0000
 Cp, KJ/(KG)(K)   14.4687  14.4726  14.4762  14.4795  14.4825  14.4852  14.4877  14.4900
 GAMMAs            1.3987   1.3986   1.3984   1.3983   1.3982   1.3981   1.3980   1.3979
 SON VEL,M/SEC     1490.3   1499.9   1509.4   1518.9   1528.3   1537.6   1546.9   1556.1

 TRANSPORT PROPERTIES (GASES ONLY)
   CONDUCTIVITY IN UNITS OF MILLIWATTS/(CM)(K)

 VISC,MILLIPOISE  0.08471  0.10258  0.10718  0.10879  0.10984  0.11079  0.11170  0.11262

  WITH EQUILIBRIUM REACTIONS

 Cp, KJ/(KG)(K)   14.4687  14.4726  14.4762  14.4795  14.4825  14.4852  14.4877  14.4900
 CONDUCTIVITY      1.2010   1.9628   2.2175   2.2855   2.3141   2.3353   2.3549   2.3742
 PRANDTL NUMBER    1.0205   0.7564   0.6997   0.6893   0.6874   0.6872   0.6872   0.6873

  WITH FROZEN REACTIONS

 Cp, KJ/(KG)(K)   14.4687  14.4726  14.4762  14.4795  14.4825  14.4852  14.4877  14.4900
 CONDUCTIVITY      1.2010   1.9628   2.2175   2.2855   2.3141   2.3353   2.3549   2.3742
 PRANDTL NUMBER    1.0205   0.7564   0.6997   0.6893   0.6874   0.6872   0.6872   0.6873

 MOLE FRACTIONS

 *H2              1.00000  1.00000  1.00000  1.00000  1.00000  1.00000  1.00000  1.00000

  * THERMODYNAMIC PROPERTIES FITTED TO 20000.K

 NOTE. WEIGHT FRACTION OF FUEL IN TOTAL FUELS AND OF OXIDANT IN TOTAL OXIDANTS









               THERMODYNAMIC EQUILIBRIUM PROPERTIES AT ASSIGNED

                           TEMPERATURE AND PRESSURE

 CASE =                

             REACTANT                    WT FRACTION      ENERGY      TEMP
                                          (SEE NOTE)     KJ/KG-MOL      K  
             H2                           1.0000000         0.000      0.000

 O/F=    0.00000  %FUEL=100.000000  R,EQ.RATIO= 0.000000  PHI,EQ.RATIO= 0.000000

 THERMODYNAMIC PROPERTIES

 P, BAR            1.2000   1.2000   1.2000   1.2000   1.2000   1.2000   1.2000   1.2000
 T, K              350.00   355.00   360.00   365.00   370.00   375.00   380.00   385.00
 RHO, KG/CU M    8.3127-2 8.1956-2 8.0818-2 7.9711-2 7.8634-2 7.7585-2 7.6565-2 7.5570-2
 H, KJ/KG          745.34   817.50   889.70   961.93  1034.19  1106.47  1178.78  1251.12
 U, KJ/KG         -698.23  -646.69  -595.12  -543.51  -491.87  -440.21  -388.52  -336.81
 G, KJ/KG        -22487.1 -22819.5 -23152.9 -23487.3 -23822.7 -24159.1 -24496.5 -24834.8
 S, KJ/(KG)(K)    66.3784  66.5831  66.7850  66.9843  67.1809  67.3750  67.5665  67.7556

 M, (1/n)           2.016    2.016    2.016    2.016    2.016    2.016    2.016    2.016
 (dLV/dLP)t      -1.00000 -1.00000 -1.00000 -1.00000 -1.00000 -1.00000 -1.00000 -1.00000
 (dLV/dLT)p        1.0000   1.0000   1.0000   1.0000   1.0000   1.0000   1.0000   1.0000
 Cp, KJ/(KG)(K)   14.4286  14.4360  14.4427  14.4489  14.4545  14.4597  14.4644  14.4687
 GAMMAs            1.4003   1.4000   1.3997   1.3995   1.3993   1.3991   1.3989   1.3987
 SON VEL,M/SEC     1421.8   1431.7   1441.6   1451.5   1461.3   1471.0   1480.7   1490.3

 TRANSPORT PROPERTIES (GASES ONLY)
   CONDUCTIVITY IN UNITS OF MILLIWATTS/(CM)(K)

 VISC,MILLIPOISE  0.00000  0.00001  0.00004  0.00026  0.00172  0.01017  0.04201  0.08471

  WITH EQUILIBRIUM REACTIONS

 Cp, KJ/(KG)(K)   14.4286  14.4360  14.4427  14.4489  14.4545  14.4597  14.4644  14.4687
 CONDUCTIVITY      0.0000   0.0000   0.0002   0.0016   0.0108   0.0676   0.3619   1.2010
 PRANDTL NUMBER    2.3355   2.3360   2.3360   2.3330   2.3102   2.1771   1.6791   1.0205

  WITH FROZEN REACTIONS

 Cp, KJ/(KG)(K)   14.4286  14.4360  14.4427  14.4489  14.4545  14.4597  14.4644  14.4687
 CONDUCTIVITY      0.0000   0.0000   0.0002   0.0016   0.0108   0.0676   0.3619   1.2010
 PRANDTL NUMBER    2.3355   2.3360   2.3360   2.3330   2.3102   2.1771   1.6791   1.0205

 MOLE FRACTIONS

 *H2              1.00000  1.00000  1.00000  1.00000  1.00000  1.00000  1.00000  1.00000

  * THERMODYNAMIC PROPERTIES FITTED TO 20000.K

 NOTE. WEIGHT FRACTION OF FUEL IN TOTAL FUELS AND OF OXIDANT IN TOTAL OXIDANTS









               THERMODYNAMIC EQUILIBRIUM PROPERTIES AT ASSIGNED

                           TEMPERATURE AND PRESSURE

 CASE =                

             REACTANT                    WT FRACTION      ENERGY      TEMP
                                          (SEE NOTE)     KJ/KG-MOL      K  
             H2                           1.0000000         0.000      0.000

 O/F=    0.00000  %FUEL=100.000000  R,EQ.RATIO= 0.000000  PHI,EQ.RATIO= 0.000000

 THERMODYNAMIC PROPERTIES

 P, BAR            1.2000   1.2000   1.2000   1.2000   1.2000   1.2000   1.2000   1.3200
 T, K              390.00   395.00   400.00   405.00   410.00   415.00   420.00   350.00
 RHO, KG/CU M    7.4601-2 7.3657-2 7.2736-2 7.1838-2 7.0962-2 7.0107-2 6.9273-2 9.1440-2
 H, KJ/KG         1323.47  1395.84  1468.23  1540.64  1613.06  1685.49  1757.93   745.34
 U, KJ/KG         -285.08  -233.33  -181.56  -129.78  -77.984  -26.174   25.648  -698.23
 G, KJ/KG        -25174.0 -25514.2 -25855.3 -26197.3 -26540.2 -26884.0 -27228.6 -22349.5
 S, KJ/(KG)(K)    67.9423  68.1267  68.3088  68.4887  68.6665  68.8421  69.0156  65.9853

 M, (1/n)           2.016    2.016    2.016    2.016    2.016    2.016    2.016    2.016
 (dLV/dLP)t      -1.00000 -1.00000 -1.00000 -1.00000 -1.00000 -1.00000 -1.00000 -1.00000
 (dLV/dLT)p        1.0000   1.0000   1.0000   1.0000   1.0000   1.0000   1.0000   1.0000
 Cp, KJ/(KG)(K)   14.4726  14.4762  14.4795  14.4825  14.4852  14.4877  14.4900  14.4286
 GAMMAs            1.3986   1.3984   1.3983   1.3982   1.3981   1.3980   1.3979   1.4003
 SON VEL,M/SEC     1499.9   1509.4   1518.9   1528.3   1537.6   1546.9   1556.1   1421.8

 TRANSPORT PROPERTIES (GASES ONLY)
   CONDUCTIVITY IN UNITS OF MILLIWATTS/(CM)(K)

 VISC,MILLIPOISE  0.10258  0.10718  0.10879  0.10984  0.11079  0.11170  0.11262  0.00000

  WITH EQUILIBRIUM REACTIONS

 Cp, KJ/(KG)(K)   14.4726  14.4762  14.4795  14.4825  14.4852  14.4877  14.4900  14.4286
 CONDUCTIVITY      1.9628   2.2175   2.2855   2.3141   2.3353   2.3549   2.3742   0.0000
 PRANDTL NUMBER    0.7564   0.6997   0.6893   0.6874   0.6872   0.6872   0.6873   2.3355

  WITH FROZEN REACTIONS

 Cp, KJ/(KG)(K)   14.4726  14.4762  14.4795  14.4825  14.4852  14.4877  14.4900  14.4286
 CONDUCTIVITY      1.9628   2.2175   2.2855   2.3141   2.3353   2.3549   2.3742   0.0000
 PRANDTL NUMBER    0.7564   0.6997   0.6893   0.6874   0.6872   0.6872   0.6873   2.3355

 MOLE FRACTIONS

 *H2              1.00000  1.00000  1.00000  1.00000  1.00000  1.00000  1.00000  1.00000

  * THERMODYNAMIC PROPERTIES FITTED TO 20000.K

 NOTE. WEIGHT FRACTION OF FUEL IN TOTAL FUELS AND OF OXIDANT IN TOTAL OXIDANTS









               THERMODYNAMIC EQUILIBRIUM PROPERTIES AT ASSIGNED

                           TEMPERATURE AND PRESSURE

 CASE =                

             REACTANT                    WT FRACTION      ENERGY      TEMP
                                          (SEE NOTE)     KJ/KG-MOL      K  
             H2                           1.0000000         0.000      0.000

 O/F=    0.00000  %FUEL=100.000000  R,EQ.RATIO= 0.000000  PHI,EQ.RATIO= 0.000000

 THERMODYNAMIC PROPERTIES

 P, BAR            1.3200   1.3200   1.3200   1.3200   1.3200   1.3200   1.3200   1.3200
 T, K              355.00   360.00   365.00   370.00   375.00   380.00   385.00   390.00
 RHO, KG/CU M    9.0152-2 8.8900-2 8.7682-2 8.6497-2 8.5344-2 8.4221-2 8.3127-2 8.2061-2
 H, KJ/KG          817.50   889.70   961.93  1034.19  1106.47  1178.78  1251.12  1323.47
 U, KJ/KG         -646.69  -595.12  -543.51  -491.87  -440.21  -388.52  -336.81  -285.08
 G, KJ/KG        -22679.9 -23011.4 -23343.8 -23677.3 -24011.7 -24347.1 -24683.5 -25020.7
 S, KJ/(KG)(K)    66.1900  66.3919  66.5912  66.7878  66.9819  67.1734  67.3625  67.5492

 M, (1/n)           2.016    2.016    2.016    2.016    2.016    2.016    2.016    2.016
 (dLV/dLP)t      -1.00000 -1.00000 -1.00000 -1.00000 -1.00000 -1.00000 -1.00000 -1.00000
 (dLV/dLT)p        1.0000   1.0000   1.0000   1.0000   1.0000   1.0000   1.0000   1.0000
 Cp, KJ/(KG)(K)   14.4360  14.4427  14.4489  14.4545  14.4597  14.4644  14.4687  14.4726
 GAMMAs            1.4000   1.3997   1.3995   1.3993   1.3991   1.3989   1.3987   1.3986
 SON VEL,M/SEC     1431.7   1441.6   1451.5   1461.3   1471.0   1480.7   1490.3   1499.9

 TRANSPORT PROPERTIES (GASES ONLY)
   CONDUCTIVITY IN UNITS OF MILLIWATTS/(CM)(K)

 VISC,MILLIPOISE  0.00001  0.00004  0.00026  0.00172  0.01017  0.04201  0.08471  0.10258

  WITH EQUILIBRIUM REACTIONS

 Cp, KJ/(KG)(K)   14.4360  14.4427  14.4489  14.4545  14.4597  14.4644  14.4687  14.4726
 CONDUCTIVITY      0.0000   0.0002   0.0016   0.0108   0.0676   0.3619   1.2010   1.9628
 PRANDTL NUMBER    2.3360   2.3360   2.3330   2.3102   2.1771   1.6791   1.0205   0.7564

  WITH FROZEN REACTIONS

 Cp, KJ/(KG)(K)   14.4360  14.4427  14.4489  14.4545  14.4597  14.4644  14.4687  14.4726
 CONDUCTIVITY      0.0000   0.0002   0.0016   0.0108   0.0676   0.3619   1.2010   1.9628
 PRANDTL NUMBER    2.3360   2.3360   2.3330   2.3102   2.1771   1.6791   1.0205   0.7564

 MOLE FRACTIONS

 *H2              1.00000  1.00000  1.00000  1.00000  1.00000  1.00000  1.00000  1.00000

  * THERMODYNAMIC PROPERTIES FITTED TO 20000.K

 NOTE. WEIGHT FRACTION OF FUEL IN TOTAL FUELS AND OF OXIDANT IN TOTAL OXIDANTS









               THERMODYNAMIC EQUILIBRIUM PROPERTIES AT ASSIGNED

                           TEMPERATURE AND PRESSURE

 CASE =                

             REACTANT                    WT FRACTION      ENERGY      TEMP
                                          (SEE NOTE)     KJ/KG-MOL      K  
             H2                           1.0000000         0.000      0.000

 O/F=    0.00000  %FUEL=100.000000  R,EQ.RATIO= 0.000000  PHI,EQ.RATIO= 0.000000

 THERMODYNAMIC PROPERTIES

 P, BAR            1.3200   1.3200   1.3200   1.3200   1.3200   1.3200   1.4800   1.4800
 T, K              395.00   400.00   405.00   410.00   415.00   420.00   350.00   355.00
 RHO, KG/CU M    8.1023-2 8.0010-2 7.9022-2 7.8058-2 7.7118-2 7.6200-2 1.0252-1 1.0108-1
 H, KJ/KG         1395.84  1468.23  1540.64  1613.06  1685.49  1757.93   745.34   817.50
 U, KJ/KG         -233.33  -181.56  -129.78  -77.984  -26.174   25.648  -698.23  -646.69
 G, KJ/KG        -25358.9 -25698.1 -26038.1 -26379.0 -26720.8 -27063.5 -22184.4 -22512.4
 S, KJ/(KG)(K)    67.7336  67.9157  68.0956  68.2733  68.4489  68.6225  65.5134  65.7181

 M, (1/n)           2.016    2.016    2.016    2.016    2.016    2.016    2.016    2.016
 (dLV/dLP)t      -1.00000 -1.00000 -1.00000 -1.00000 -1.00000 -1.00000 -1.00000 -1.00000
 (dLV/dLT)p        1.0000   1.0000   1.0000   1.0000   1.0000   1.0000   1.0000   1.0000
 Cp, KJ/(KG)(K)   14.4762  14.4795  14.4825  14.4852  14.4877  14.4900  14.4286  14.4360
 GAMMAs            1.3984   1.3983   1.3982   1.3981   1.3980   1.3979   1.4003   1.4000
 SON VEL,M/SEC     1509.4   1518.9   1528.3   1537.6   1546.9   1556.1   1421.8   1431.7

 TRANSPORT PROPERTIES (GASES ONLY)
   CONDUCTIVITY IN UNITS OF MILLIWATTS/(CM)(K)

 VISC,MILLIPOISE  0.10718  0.10879  0.10984  0.11079  0.11170  0.11262  0.00000  0.00001

  WITH EQUILIBRIUM REACTIONS

 Cp, KJ/(KG)(K)   14.4762  14.4795  14.4825  14.4852  14.4877  14.4900  14.4286  14.4360
 CONDUCTIVITY      2.2175   2.2855   2.3141   2.3353   2.3549   2.3742   0.0000   0.0000
 PRANDTL NUMBER    0.6997   0.6893   0.6874   0.6872   0.6872   0.6873   2.3355   2.3360

  WITH FROZEN REACTIONS

 Cp, KJ/(KG)(K)   14.4762  14.4795  14.4825  14.4852  14.4877  14.4900  14.4286  14.4360
 CONDUCTIVITY      2.2175   2.2855   2.3141   2.3353   2.3549   2.3742   0.0000   0.0000
 PRANDTL NUMBER    0.6997   0.6893   0.6874   0.6872   0.6872   0.6873   2.3355   2.3360

 MOLE FRACTIONS

 *H2              1.00000  1.00000  1.00000  1.00000  1.00000  1.00000  1.00000  1.00000

  * THERMODYNAMIC PROPERTIES FITTED TO 20000.K

 NOTE. WEIGHT FRACTION OF FUEL IN TOTAL FUELS AND OF OXIDANT IN TOTAL OXIDANTS









               THERMODYNAMIC EQUILIBRIUM PROPERTIES AT ASSIGNED

                           TEMPERATURE AND PRESSURE

 CASE =                

             REACTANT                    WT FRACTION      ENERGY      TEMP
                                          (SEE NOTE)     KJ/KG-MOL      K  
             H2                           1.0000000         0.000      0.000

 O/F=    0.00000  %FUEL=100.000000  R,EQ.RATIO= 0.000000  PHI,EQ.RATIO= 0.000000

 THERMODYNAMIC PROPERTIES

 P, BAR            1.4800   1.4800   1.4800   1.4800   1.4800   1.4800   1.4800   1.4800
 T, K              360.00   365.00   370.00   375.00   380.00   385.00   390.00   395.00
 RHO, KG/CU M    9.9676-2 9.8310-2 9.6982-2 9.5689-2 9.4430-2 9.3203-2 9.2008-2 9.0844-2
 H, KJ/KG          889.70   961.93  1034.19  1106.47  1178.78  1251.12  1323.47  1395.84
 U, KJ/KG         -595.12  -543.51  -491.87  -440.21  -388.52  -336.81  -285.08  -233.33
 G, KJ/KG        -22841.5 -23171.6 -23502.7 -23834.8 -24167.8 -24501.8 -24836.7 -25172.5
 S, KJ/(KG)(K)    65.9200  66.1193  66.3159  66.5100  66.7015  66.8906  67.0773  67.2617

 M, (1/n)           2.016    2.016    2.016    2.016    2.016    2.016    2.016    2.016
 (dLV/dLP)t      -1.00000 -1.00000 -1.00000 -1.00000 -1.00000 -1.00000 -1.00000 -1.00000
 (dLV/dLT)p        1.0000   1.0000   1.0000   1.0000   1.0000   1.0000   1.0000   1.0000
 Cp, KJ/(KG)(K)   14.4427  14.4489  14.4545  14.4597  14.4644  14.4687  14.4726  14.4762
 GAMMAs            1.3997   1.3995   1.3993   1.3991   1.3989   1.3987   1.3986   1.3984
 SON VEL,M/SEC     1441.6   1451.5   1461.3   1471.0   1480.7   1490.3   1499.9   1509.4

 TRANSPORT PROPERTIES (GASES ONLY)
   CONDUCTIVITY IN UNITS OF MILLIWATTS/(CM)(K)

 VISC,MILLIPOISE  0.00004  0.00026  0.00172  0.01017  0.04201  0.08471  0.10258  0.10718

  WITH EQUILIBRIUM REACTIONS

 Cp, KJ/(KG)(K)   14.4427  14.4489  14.4545  14.4597  14.4644  14.4687  14.4726  14.4762
 CONDUCTIVITY      0.0002   0.0016   0.0108   0.0676   0.3619   1.2010   1.9628   2.2175
 PRANDTL NUMBER    2.3360   2.3330   2.3102   2.1771   1.6791   1.0205   0.7564   0.6997

  WITH FROZEN REACTIONS

 Cp, KJ/(KG)(K)   14.4427  14.4489  14.4545  14.4597  14.4644  14.4687  14.4726  14.4762
 CONDUCTIVITY      0.0002   0.0016   0.0108   0.0676   0.3619   1.2010   1.9628   2.2175
 PRANDTL NUMBER    2.3360   2.3330   2.3102   2.1771   1.6791   1.0205   0.7564   0.6997

 MOLE FRACTIONS

 *H2              1.00000  1.00000  1.00000  1.00000  1.00000  1.00000  1.00000  1.00000

  * THERMODYNAMIC PROPERTIES FITTED TO 20000.K

 NOTE. WEIGHT FRACTION OF FUEL IN TOTAL FUELS AND OF OXIDANT IN TOTAL OXIDANTS









               THERMODYNAMIC EQUILIBRIUM PROPERTIES AT ASSIGNED

                           TEMPERATURE AND PRESSURE

 CASE =                

             REACTANT                    WT FRACTION      ENERGY      TEMP
                                          (SEE NOTE)     KJ/KG-MOL      K  
             H2                           1.0000000         0.000      0.000

 O/F=    0.00000  %FUEL=100.000000  R,EQ.RATIO= 0.000000  PHI,EQ.RATIO= 0.000000

 THERMODYNAMIC PROPERTIES

 P, BAR            1.4800   1.4800   1.4800   1.4800   1.4800   1.6500   1.6500   1.6500
 T, K              400.00   405.00   410.00   415.00   420.00   350.00   355.00   360.00
 RHO, KG/CU M    8.9708-2 8.8601-2 8.7520-2 8.6466-2 8.5436-2 1.1430-1 1.1269-1 1.1112-1
 H, KJ/KG         1468.23  1540.64  1613.06  1685.49  1757.93   745.34   817.50   889.70
 U, KJ/KG         -181.56  -129.78  -77.984  -26.174   25.648  -698.23  -646.69  -595.12
 G, KJ/KG        -25509.3 -25847.0 -26185.5 -26525.0 -26865.3 -22027.4 -22353.2 -22680.1
 S, KJ/(KG)(K)    67.4439  67.6237  67.8015  67.9771  68.1506  65.0650  65.2696  65.4716

 M, (1/n)           2.016    2.016    2.016    2.016    2.016    2.016    2.016    2.016
 (dLV/dLP)t      -1.00000 -1.00000 -1.00000 -1.00000 -1.00000 -1.00000 -1.00000 -1.00000
 (dLV/dLT)p        1.0000   1.0000   1.0000   1.0000   1.0000   1.0000   1.0000   1.0000
 Cp, KJ/(KG)(K)   14.4795  14.4825  14.4852  14.4877  14.4900  14.4286  14.4360  14.4427
 GAMMAs            1.3983   1.3982   1.3981   1.3980   1.3979   1.4003   1.4000   1.3997
 SON VEL,M/SEC     1518.9   1528.3   1537.6   1546.9   1556.1   1421.8   1431.7   1441.6

 TRANSPORT PROPERTIES (GASES ONLY)
   CONDUCTIVITY IN UNITS OF MILLIWATTS/(CM)(K)

 VISC,MILLIPOISE  0.10879  0.10984  0.11079  0.11170  0.11262  0.00000  0.00001  0.00004

  WITH EQUILIBRIUM REACTIONS

 Cp, KJ/(KG)(K)   14.4795  14.4825  14.4852  14.4877  14.4900  14.4286  14.4360  14.4427
 CONDUCTIVITY      2.2855   2.3141   2.3353   2.3549   2.3742   0.0000   0.0000   0.0002
 PRANDTL NUMBER    0.6893   0.6874   0.6872   0.6872   0.6873   2.3355   2.3360   2.3360

  WITH FROZEN REACTIONS

 Cp, KJ/(KG)(K)   14.4795  14.4825  14.4852  14.4877  14.4900  14.4286  14.4360  14.4427
 CONDUCTIVITY      2.2855   2.3141   2.3353   2.3549   2.3742   0.0000   0.0000   0.0002
 PRANDTL NUMBER    0.6893   0.6874   0.6872   0.6872   0.6873   2.3355   2.3360   2.3360

 MOLE FRACTIONS

 *H2              1.00000  1.00000  1.00000  1.00000  1.00000  1.00000  1.00000  1.00000

  * THERMODYNAMIC PROPERTIES FITTED TO 20000.K

 NOTE. WEIGHT FRACTION OF FUEL IN TOTAL FUELS AND OF OXIDANT IN TOTAL OXIDANTS









               THERMODYNAMIC EQUILIBRIUM PROPERTIES AT ASSIGNED

                           TEMPERATURE AND PRESSURE

 CASE =                

             REACTANT                    WT FRACTION      ENERGY      TEMP
                                          (SEE NOTE)     KJ/KG-MOL      K  
             H2                           1.0000000         0.000      0.000

 O/F=    0.00000  %FUEL=100.000000  R,EQ.RATIO= 0.000000  PHI,EQ.RATIO= 0.000000

 THERMODYNAMIC PROPERTIES

 P, BAR            1.6500   1.6500   1.6500   1.6500   1.6500   1.6500   1.6500   1.6500
 T, K              365.00   370.00   375.00   380.00   385.00   390.00   395.00   400.00
 RHO, KG/CU M    1.0960-1 1.0812-1 1.0668-1 1.0528-1 1.0391-1 1.0258-1 1.0128-1 1.0001-1
 H, KJ/KG          961.93  1034.19  1106.47  1178.78  1251.12  1323.47  1395.84  1468.23
 U, KJ/KG         -543.51  -491.87  -440.21  -388.52  -336.81  -285.08  -233.33  -181.56
 G, KJ/KG        -23007.9 -23336.8 -23666.6 -23997.4 -24329.1 -24661.8 -24995.4 -25329.9
 S, KJ/(KG)(K)    65.6708  65.8674  66.0615  66.2530  66.4422  66.6289  66.8133  66.9954

 M, (1/n)           2.016    2.016    2.016    2.016    2.016    2.016    2.016    2.016
 (dLV/dLP)t      -1.00000 -1.00000 -1.00000 -1.00000 -1.00000 -1.00000 -1.00000 -1.00000
 (dLV/dLT)p        1.0000   1.0000   1.0000   1.0000   1.0000   1.0000   1.0000   1.0000
 Cp, KJ/(KG)(K)   14.4489  14.4545  14.4597  14.4644  14.4687  14.4726  14.4762  14.4795
 GAMMAs            1.3995   1.3993   1.3991   1.3989   1.3987   1.3986   1.3984   1.3983
 SON VEL,M/SEC     1451.5   1461.3   1471.0   1480.7   1490.3   1499.9   1509.4   1518.9

 TRANSPORT PROPERTIES (GASES ONLY)
   CONDUCTIVITY IN UNITS OF MILLIWATTS/(CM)(K)

 VISC,MILLIPOISE  0.00026  0.00172  0.01017  0.04201  0.08471  0.10258  0.10718  0.10879

  WITH EQUILIBRIUM REACTIONS

 Cp, KJ/(KG)(K)   14.4489  14.4545  14.4597  14.4644  14.4687  14.4726  14.4762  14.4795
 CONDUCTIVITY      0.0016   0.0108   0.0676   0.3619   1.2010   1.9628   2.2175   2.2855
 PRANDTL NUMBER    2.3330   2.3102   2.1771   1.6791   1.0205   0.7564   0.6997   0.6893

  WITH FROZEN REACTIONS

 Cp, KJ/(KG)(K)   14.4489  14.4545  14.4597  14.4644  14.4687  14.4726  14.4762  14.4795
 CONDUCTIVITY      0.0016   0.0108   0.0676   0.3619   1.2010   1.9628   2.2175   2.2855
 PRANDTL NUMBER    2.3330   2.3102   2.1771   1.6791   1.0205   0.7564   0.6997   0.6893

 MOLE FRACTIONS

 *H2              1.00000  1.00000  1.00000  1.00000  1.00000  1.00000  1.00000  1.00000

  * THERMODYNAMIC PROPERTIES FITTED TO 20000.K

 NOTE. WEIGHT FRACTION OF FUEL IN TOTAL FUELS AND OF OXIDANT IN TOTAL OXIDANTS









               THERMODYNAMIC EQUILIBRIUM PROPERTIES AT ASSIGNED

                           TEMPERATURE AND PRESSURE

 CASE =                

             REACTANT                    WT FRACTION      ENERGY      TEMP
                                          (SEE NOTE)     KJ/KG-MOL      K  
             H2                           1.0000000         0.000      0.000

 O/F=    0.00000  %FUEL=100.000000  R,EQ.RATIO= 0.000000  PHI,EQ.RATIO= 0.000000

 THERMODYNAMIC PROPERTIES

 P, BAR            1.6500   1.6500   1.6500   1.6500   1.8000   1.8000   1.8000   1.8000
 T, K              405.00   410.00   415.00   420.00   350.00   355.00   360.00   365.00
 RHO, KG/CU M    9.8778-2 9.7573-2 9.6397-2 9.5250-2 1.2469-1 1.2293-1 1.2123-1 1.1957-1
 H, KJ/KG         1540.64  1613.06  1685.49  1757.93   745.34   817.50   889.70   961.93
 U, KJ/KG         -129.78  -77.984  -26.174   25.648  -698.23  -646.69  -595.12  -543.51
 G, KJ/KG        -25665.3 -26001.7 -26338.9 -26677.0 -21901.8 -22225.8 -22550.9 -22876.9
 S, KJ/(KG)(K)    67.1753  67.3530  67.5286  67.7021  64.7061  64.9108  65.1127  65.3119

 M, (1/n)           2.016    2.016    2.016    2.016    2.016    2.016    2.016    2.016
 (dLV/dLP)t      -1.00000 -1.00000 -1.00000 -1.00000 -1.00000 -1.00000 -1.00000 -1.00000
 (dLV/dLT)p        1.0000   1.0000   1.0000   1.0000   1.0000   1.0000   1.0000   1.0000
 Cp, KJ/(KG)(K)   14.4825  14.4852  14.4877  14.4900  14.4286  14.4360  14.4427  14.4489
 GAMMAs            1.3982   1.3981   1.3980   1.3979   1.4003   1.4000   1.3997   1.3995
 SON VEL,M/SEC     1528.3   1537.6   1546.9   1556.1   1421.8   1431.7   1441.6   1451.5

 TRANSPORT PROPERTIES (GASES ONLY)
   CONDUCTIVITY IN UNITS OF MILLIWATTS/(CM)(K)

 VISC,MILLIPOISE  0.10984  0.11079  0.11170  0.11262  0.00000  0.00001  0.00004  0.00026

  WITH EQUILIBRIUM REACTIONS

 Cp, KJ/(KG)(K)   14.4825  14.4852  14.4877  14.4900  14.4286  14.4360  14.4427  14.4489
 CONDUCTIVITY      2.3141   2.3353   2.3549   2.3742   0.0000   0.0000   0.0002   0.0016
 PRANDTL NUMBER    0.6874   0.6872   0.6872   0.6873   2.3355   2.3360   2.3360   2.3330

  WITH FROZEN REACTIONS

 Cp, KJ/(KG)(K)   14.4825  14.4852  14.4877  14.4900  14.4286  14.4360  14.4427  14.4489
 CONDUCTIVITY      2.3141   2.3353   2.3549   2.3742   0.0000   0.0000   0.0002   0.0016
 PRANDTL NUMBER    0.6874   0.6872   0.6872   0.6873   2.3355   2.3360   2.3360   2.3330

 MOLE FRACTIONS

 *H2              1.00000  1.00000  1.00000  1.00000  1.00000  1.00000  1.00000  1.00000

  * THERMODYNAMIC PROPERTIES FITTED TO 20000.K

 NOTE. WEIGHT FRACTION OF FUEL IN TOTAL FUELS AND OF OXIDANT IN TOTAL OXIDANTS









               THERMODYNAMIC EQUILIBRIUM PROPERTIES AT ASSIGNED

                           TEMPERATURE AND PRESSURE

 CASE =                

             REACTANT                    WT FRACTION      ENERGY      TEMP
                                          (SEE NOTE)     KJ/KG-MOL      K  
             H2                           1.0000000         0.000      0.000

 O/F=    0.00000  %FUEL=100.000000  R,EQ.RATIO= 0.000000  PHI,EQ.RATIO= 0.000000

 THERMODYNAMIC PROPERTIES

 P, BAR            1.8000   1.8000   1.8000   1.8000   1.8000   1.8000   1.8000   1.8000
 T, K              370.00   375.00   380.00   385.00   390.00   395.00   400.00   405.00
 RHO, KG/CU M    1.1795-1 1.1638-1 1.1485-1 1.1336-1 1.1190-1 1.1049-1 1.0910-1 1.0776-1
 H, KJ/KG         1034.19  1106.47  1178.78  1251.12  1323.47  1395.84  1468.23  1540.64
 U, KJ/KG         -491.87  -440.21  -388.52  -336.81  -285.08  -233.33  -181.56  -129.78
 G, KJ/KG        -23204.0 -23532.0 -23861.0 -24190.9 -24521.8 -24853.6 -25186.4 -25520.0
 S, KJ/(KG)(K)    65.5086  65.7026  65.8942  66.0833  66.2700  66.4544  66.6365  66.8164

 M, (1/n)           2.016    2.016    2.016    2.016    2.016    2.016    2.016    2.016
 (dLV/dLP)t      -1.00000 -1.00000 -1.00000 -1.00000 -1.00000 -1.00000 -1.00000 -1.00000
 (dLV/dLT)p        1.0000   1.0000   1.0000   1.0000   1.0000   1.0000   1.0000   1.0000
 Cp, KJ/(KG)(K)   14.4545  14.4597  14.4644  14.4687  14.4726  14.4762  14.4795  14.4825
 GAMMAs            1.3993   1.3991   1.3989   1.3987   1.3986   1.3984   1.3983   1.3982
 SON VEL,M/SEC     1461.3   1471.0   1480.7   1490.3   1499.9   1509.4   1518.9   1528.3

 TRANSPORT PROPERTIES (GASES ONLY)
   CONDUCTIVITY IN UNITS OF MILLIWATTS/(CM)(K)

 VISC,MILLIPOISE  0.00172  0.01017  0.04201  0.08471  0.10258  0.10718  0.10879  0.10984

  WITH EQUILIBRIUM REACTIONS

 Cp, KJ/(KG)(K)   14.4545  14.4597  14.4644  14.4687  14.4726  14.4762  14.4795  14.4825
 CONDUCTIVITY      0.0108   0.0676   0.3619   1.2010   1.9628   2.2175   2.2855   2.3141
 PRANDTL NUMBER    2.3102   2.1771   1.6791   1.0205   0.7564   0.6997   0.6893   0.6874

  WITH FROZEN REACTIONS

 Cp, KJ/(KG)(K)   14.4545  14.4597  14.4644  14.4687  14.4726  14.4762  14.4795  14.4825
 CONDUCTIVITY      0.0108   0.0676   0.3619   1.2010   1.9628   2.2175   2.2855   2.3141
 PRANDTL NUMBER    2.3102   2.1771   1.6791   1.0205   0.7564   0.6997   0.6893   0.6874

 MOLE FRACTIONS

 *H2              1.00000  1.00000  1.00000  1.00000  1.00000  1.00000  1.00000  1.00000

  * THERMODYNAMIC PROPERTIES FITTED TO 20000.K

 NOTE. WEIGHT FRACTION OF FUEL IN TOTAL FUELS AND OF OXIDANT IN TOTAL OXIDANTS









               THERMODYNAMIC EQUILIBRIUM PROPERTIES AT ASSIGNED

                           TEMPERATURE AND PRESSURE

 CASE =                

             REACTANT                    WT FRACTION      ENERGY      TEMP
                                          (SEE NOTE)     KJ/KG-MOL      K  
             H2                           1.0000000         0.000      0.000

 O/F=    0.00000  %FUEL=100.000000  R,EQ.RATIO= 0.000000  PHI,EQ.RATIO= 0.000000

 THERMODYNAMIC PROPERTIES

 P, BAR            1.8000   1.8000   1.8000   2.0000   2.0000   2.0000   2.0000   2.0000
 T, K              410.00   415.00   420.00   350.00   355.00   360.00   365.00   370.00
 RHO, KG/CU M    1.0644-1 1.0516-1 1.0391-1 1.3855-1 1.3659-1 1.3470-1 1.3285-1 1.3106-1
 H, KJ/KG         1613.06  1685.49  1757.93   745.34   817.50   889.70   961.93  1034.19
 U, KJ/KG         -77.984  -26.174   25.648  -698.23  -646.69  -595.12  -543.51  -491.87
 G, KJ/KG        -25854.5 -26189.9 -26526.2 -21749.7 -22071.5 -22394.4 -22718.3 -23043.2
 S, KJ/(KG)(K)    66.9941  67.1697  67.3432  64.2715  64.4762  64.6781  64.8774  65.0740

 M, (1/n)           2.016    2.016    2.016    2.016    2.016    2.016    2.016    2.016
 (dLV/dLP)t      -1.00000 -1.00000 -1.00000 -1.00000 -1.00000 -1.00000 -1.00000 -1.00000
 (dLV/dLT)p        1.0000   1.0000   1.0000   1.0000   1.0000   1.0000   1.0000   1.0000
 Cp, KJ/(KG)(K)   14.4852  14.4877  14.4900  14.4286  14.4360  14.4427  14.4489  14.4545
 GAMMAs            1.3981   1.3980   1.3979   1.4003   1.4000   1.3997   1.3995   1.3993
 SON VEL,M/SEC     1537.6   1546.9   1556.1   1421.8   1431.7   1441.6   1451.5   1461.3

 TRANSPORT PROPERTIES (GASES ONLY)
   CONDUCTIVITY IN UNITS OF MILLIWATTS/(CM)(K)

 VISC,MILLIPOISE  0.11079  0.11170  0.11262  0.00000  0.00001  0.00004  0.00026  0.00172

  WITH EQUILIBRIUM REACTIONS

 Cp, KJ/(KG)(K)   14.4852  14.4877  14.4900  14.4286  14.4360  14.4427  14.4489  14.4545
 CONDUCTIVITY      2.3353   2.3549   2.3742   0.0000   0.0000   0.0002   0.0016   0.0108
 PRANDTL NUMBER    0.6872   0.6872   0.6873   2.3355   2.3360   2.3360   2.3330   2.3102

  WITH FROZEN REACTIONS

 Cp, KJ/(KG)(K)   14.4852  14.4877  14.4900  14.4286  14.4360  14.4427  14.4489  14.4545
 CONDUCTIVITY      2.3353   2.3549   2.3742   0.0000   0.0000   0.0002   0.0016   0.0108
 PRANDTL NUMBER    0.6872   0.6872   0.6873   2.3355   2.3360   2.3360   2.3330   2.3102

 MOLE FRACTIONS

 *H2              1.00000  1.00000  1.00000  1.00000  1.00000  1.00000  1.00000  1.00000

  * THERMODYNAMIC PROPERTIES FITTED TO 20000.K

 NOTE. WEIGHT FRACTION OF FUEL IN TOTAL FUELS AND OF OXIDANT IN TOTAL OXIDANTS









               THERMODYNAMIC EQUILIBRIUM PROPERTIES AT ASSIGNED

                           TEMPERATURE AND PRESSURE

 CASE =                

             REACTANT                    WT FRACTION      ENERGY      TEMP
                                          (SEE NOTE)     KJ/KG-MOL      K  
             H2                           1.0000000         0.000      0.000

 O/F=    0.00000  %FUEL=100.000000  R,EQ.RATIO= 0.000000  PHI,EQ.RATIO= 0.000000

 THERMODYNAMIC PROPERTIES

 P, BAR            2.0000   2.0000   2.0000   2.0000   2.0000   2.0000   2.0000   2.0000
 T, K              375.00   380.00   385.00   390.00   395.00   400.00   405.00   410.00
 RHO, KG/CU M    1.2931-1 1.2761-1 1.2595-1 1.2434-1 1.2276-1 1.2123-1 1.1973-1 1.1827-1
 H, KJ/KG         1106.47  1178.78  1251.12  1323.47  1395.84  1468.23  1540.64  1613.06
 U, KJ/KG         -440.21  -388.52  -336.81  -285.08  -233.33  -181.56  -129.78  -77.984
 G, KJ/KG        -23369.0 -23695.9 -24023.6 -24352.4 -24682.0 -25012.5 -25344.0 -25676.4
 S, KJ/(KG)(K)    65.2681  65.4596  65.6487  65.8354  66.0198  66.2019  66.3818  66.5596

 M, (1/n)           2.016    2.016    2.016    2.016    2.016    2.016    2.016    2.016
 (dLV/dLP)t      -1.00000 -1.00000 -1.00000 -1.00000 -1.00000 -1.00000 -1.00000 -1.00000
 (dLV/dLT)p        1.0000   1.0000   1.0000   1.0000   1.0000   1.0000   1.0000   1.0000
 Cp, KJ/(KG)(K)   14.4597  14.4644  14.4687  14.4726  14.4762  14.4795  14.4825  14.4852
 GAMMAs            1.3991   1.3989   1.3987   1.3986   1.3984   1.3983   1.3982   1.3981
 SON VEL,M/SEC     1471.0   1480.7   1490.3   1499.9   1509.4   1518.9   1528.3   1537.6

 TRANSPORT PROPERTIES (GASES ONLY)
   CONDUCTIVITY IN UNITS OF MILLIWATTS/(CM)(K)

 VISC,MILLIPOISE  0.01017  0.04201  0.08471  0.10258  0.10718  0.10879  0.10984  0.11079

  WITH EQUILIBRIUM REACTIONS

 Cp, KJ/(KG)(K)   14.4597  14.4644  14.4687  14.4726  14.4762  14.4795  14.4825  14.4852
 CONDUCTIVITY      0.0676   0.3619   1.2010   1.9628   2.2175   2.2855   2.3141   2.3353
 PRANDTL NUMBER    2.1771   1.6791   1.0205   0.7564   0.6997   0.6893   0.6874   0.6872

  WITH FROZEN REACTIONS

 Cp, KJ/(KG)(K)   14.4597  14.4644  14.4687  14.4726  14.4762  14.4795  14.4825  14.4852
 CONDUCTIVITY      0.0676   0.3619   1.2010   1.9628   2.2175   2.2855   2.3141   2.3353
 PRANDTL NUMBER    2.1771   1.6791   1.0205   0.7564   0.6997   0.6893   0.6874   0.6872

 MOLE FRACTIONS

 *H2              1.00000  1.00000  1.00000  1.00000  1.00000  1.00000  1.00000  1.00000

  * THERMODYNAMIC PROPERTIES FITTED TO 20000.K

 NOTE. WEIGHT FRACTION OF FUEL IN TOTAL FUELS AND OF OXIDANT IN TOTAL OXIDANTS









               THERMODYNAMIC EQUILIBRIUM PROPERTIES AT ASSIGNED

                           TEMPERATURE AND PRESSURE

 CASE =                

             REACTANT                    WT FRACTION      ENERGY      TEMP
                                          (SEE NOTE)     KJ/KG-MOL      K  
             H2                           1.0000000         0.000      0.000

 O/F=    0.00000  %FUEL=100.000000  R,EQ.RATIO= 0.000000  PHI,EQ.RATIO= 0.000000

 THERMODYNAMIC PROPERTIES

 P, BAR            2.0000   2.0000   2.2500   2.2500   2.2500   2.2500   2.2500   2.2500
 T, K              415.00   420.00   350.00   355.00   360.00   365.00   370.00   375.00
 RHO, KG/CU M    1.1685-1 1.1545-1 1.5586-1 1.5367-1 1.5153-1 1.4946-1 1.4744-1 1.4547-1
 H, KJ/KG         1685.49  1757.93   745.34   817.50   889.70   961.93  1034.19  1106.47
 U, KJ/KG         -26.174   25.648  -698.23  -646.69  -595.12  -543.51  -491.87  -440.21
 G, KJ/KG        -26009.6 -26343.7 -21579.7 -21899.1 -22219.5 -22541.0 -22863.4 -23186.9
 S, KJ/(KG)(K)    66.7351  66.9087  63.7857  63.9904  64.1923  64.3916  64.5882  64.7823

 M, (1/n)           2.016    2.016    2.016    2.016    2.016    2.016    2.016    2.016
 (dLV/dLP)t      -1.00000 -1.00000 -1.00000 -1.00000 -1.00000 -1.00000 -1.00000 -1.00000
 (dLV/dLT)p        1.0000   1.0000   1.0000   1.0000   1.0000   1.0000   1.0000   1.0000
 Cp, KJ/(KG)(K)   14.4877  14.4900  14.4286  14.4360  14.4427  14.4489  14.4545  14.4597
 GAMMAs            1.3980   1.3979   1.4003   1.4000   1.3997   1.3995   1.3993   1.3991
 SON VEL,M/SEC     1546.9   1556.1   1421.8   1431.7   1441.6   1451.5   1461.3   1471.0

 TRANSPORT PROPERTIES (GASES ONLY)
   CONDUCTIVITY IN UNITS OF MILLIWATTS/(CM)(K)

 VISC,MILLIPOISE  0.11170  0.11262  0.00000  0.00001  0.00004  0.00026  0.00172  0.01017

  WITH EQUILIBRIUM REACTIONS

 Cp, KJ/(KG)(K)   14.4877  14.4900  14.4286  14.4360  14.4427  14.4489  14.4545  14.4597
 CONDUCTIVITY      2.3549   2.3742   0.0000   0.0000   0.0002   0.0016   0.0108   0.0676
 PRANDTL NUMBER    0.6872   0.6873   2.3355   2.3360   2.3360   2.3330   2.3102   2.1771

  WITH FROZEN REACTIONS

 Cp, KJ/(KG)(K)   14.4877  14.4900  14.4286  14.4360  14.4427  14.4489  14.4545  14.4597
 CONDUCTIVITY      2.3549   2.3742   0.0000   0.0000   0.0002   0.0016   0.0108   0.0676
 PRANDTL NUMBER    0.6872   0.6873   2.3355   2.3360   2.3360   2.3330   2.3102   2.1771

 MOLE FRACTIONS

 *H2              1.00000  1.00000  1.00000  1.00000  1.00000  1.00000  1.00000  1.00000

  * THERMODYNAMIC PROPERTIES FITTED TO 20000.K

 NOTE. WEIGHT FRACTION OF FUEL IN TOTAL FUELS AND OF OXIDANT IN TOTAL OXIDANTS









               THERMODYNAMIC EQUILIBRIUM PROPERTIES AT ASSIGNED

                           TEMPERATURE AND PRESSURE

 CASE =                

             REACTANT                    WT FRACTION      ENERGY      TEMP
                                          (SEE NOTE)     KJ/KG-MOL      K  
             H2                           1.0000000         0.000      0.000

 O/F=    0.00000  %FUEL=100.000000  R,EQ.RATIO= 0.000000  PHI,EQ.RATIO= 0.000000

 THERMODYNAMIC PROPERTIES

 P, BAR            2.2500   2.2500   2.2500   2.2500   2.2500   2.2500   2.2500   2.2500
 T, K              380.00   385.00   390.00   395.00   400.00   405.00   410.00   415.00
 RHO, KG/CU M    1.4356-1 1.4169-1 1.3988-1 1.3811-1 1.3638-1 1.3470-1 1.3305-1 1.3145-1
 H, KJ/KG         1178.78  1251.12  1323.47  1395.84  1468.23  1540.64  1613.06  1685.49
 U, KJ/KG         -388.52  -336.81  -285.08  -233.33  -181.56  -129.78  -77.984  -26.174
 G, KJ/KG        -23511.3 -23836.6 -24162.9 -24490.1 -24818.2 -25147.3 -25477.2 -25808.0
 S, KJ/(KG)(K)    64.9738  65.1629  65.3496  65.5340  65.7161  65.8960  66.0738  66.2494

 M, (1/n)           2.016    2.016    2.016    2.016    2.016    2.016    2.016    2.016
 (dLV/dLP)t      -1.00000 -1.00000 -1.00000 -1.00000 -1.00000 -1.00000 -1.00000 -1.00000
 (dLV/dLT)p        1.0000   1.0000   1.0000   1.0000   1.0000   1.0000   1.0000   1.0000
 Cp, KJ/(KG)(K)   14.4644  14.4687  14.4726  14.4762  14.4795  14.4825  14.4852  14.4877
 GAMMAs            1.3989   1.3987   1.3986   1.3984   1.3983   1.3982   1.3981   1.3980
 SON VEL,M/SEC     1480.7   1490.3   1499.9   1509.4   1518.9   1528.3   1537.6   1546.9

 TRANSPORT PROPERTIES (GASES ONLY)
   CONDUCTIVITY IN UNITS OF MILLIWATTS/(CM)(K)

 VISC,MILLIPOISE  0.04201  0.08471  0.10258  0.10718  0.10879  0.10984  0.11079  0.11170

  WITH EQUILIBRIUM REACTIONS

 Cp, KJ/(KG)(K)   14.4644  14.4687  14.4726  14.4762  14.4795  14.4825  14.4852  14.4877
 CONDUCTIVITY      0.3619   1.2010   1.9628   2.2175   2.2855   2.3141   2.3353   2.3549
 PRANDTL NUMBER    1.6791   1.0205   0.7564   0.6997   0.6893   0.6874   0.6872   0.6872

  WITH FROZEN REACTIONS

 Cp, KJ/(KG)(K)   14.4644  14.4687  14.4726  14.4762  14.4795  14.4825  14.4852  14.4877
 CONDUCTIVITY      0.3619   1.2010   1.9628   2.2175   2.2855   2.3141   2.3353   2.3549
 PRANDTL NUMBER    1.6791   1.0205   0.7564   0.6997   0.6893   0.6874   0.6872   0.6872

 MOLE FRACTIONS

 *H2              1.00000  1.00000  1.00000  1.00000  1.00000  1.00000  1.00000  1.00000

  * THERMODYNAMIC PROPERTIES FITTED TO 20000.K

 NOTE. WEIGHT FRACTION OF FUEL IN TOTAL FUELS AND OF OXIDANT IN TOTAL OXIDANTS









               THERMODYNAMIC EQUILIBRIUM PROPERTIES AT ASSIGNED

                           TEMPERATURE AND PRESSURE

 CASE =                

             REACTANT                    WT FRACTION      ENERGY      TEMP
                                          (SEE NOTE)     KJ/KG-MOL      K  
             H2                           1.0000000         0.000      0.000

 O/F=    0.00000  %FUEL=100.000000  R,EQ.RATIO= 0.000000  PHI,EQ.RATIO= 0.000000

 THERMODYNAMIC PROPERTIES

 P, BAR            2.2500
 T, K              420.00
 RHO, KG/CU M    1.2989-1
 H, KJ/KG         1757.93
 U, KJ/KG          25.648
 G, KJ/KG        -26139.7
 S, KJ/(KG)(K)    66.4229

 M, (1/n)           2.016
 (dLV/dLP)t      -1.00000
 (dLV/dLT)p        1.0000
 Cp, KJ/(KG)(K)   14.4900
 GAMMAs            1.3979
 SON VEL,M/SEC     1556.1

 TRANSPORT PROPERTIES (GASES ONLY)
   CONDUCTIVITY IN UNITS OF MILLIWATTS/(CM)(K)

 VISC,MILLIPOISE  0.11262

  WITH EQUILIBRIUM REACTIONS

 Cp, KJ/(KG)(K)   14.4900
 CONDUCTIVITY      2.3742
 PRANDTL NUMBER    0.6873

  WITH FROZEN REACTIONS

 Cp, KJ/(KG)(K)   14.4900
 CONDUCTIVITY      2.3742
 PRANDTL NUMBER    0.6873

 MOLE FRACTIONS

 *H2              1.00000

  * THERMODYNAMIC PROPERTIES FITTED TO 20000.K

 NOTE. WEIGHT FRACTION OF FUEL IN TOTAL FUELS AND OF OXIDANT IN TOTAL OXIDANTS



  
