
 *******************************************************************************

         NASA-GLENN CHEMICAL EQUILIBRIUM PROGRAM CEA2, MAY 21, 2004
                   BY  BONNIE MCBRIDE AND SANFORD GORDON
      REFS: NASA RP-1311, PART I, 1994 AND NASA RP-1311, PART II, 1996

 *******************************************************************************



  prob tp ions
  p,bar= 0.54,0.6,0.67,0.74,0.825,0.91,1.0,1.1,1.2,1.32,1.48,1.65,1.8,2.0,2.25
  t,k= 4200,4210,4220,4230,4240,4250,4260,4270,4280,4290,4300,4310,4320,4330,4340
  
  reac
  na H2                wt%=100.0000
  
  output short
  output siunits
  output transport
  
 end





               THERMODYNAMIC EQUILIBRIUM PROPERTIES AT ASSIGNED

                           TEMPERATURE AND PRESSURE

 CASE =                

             REACTANT                    WT FRACTION      ENERGY      TEMP
                                          (SEE NOTE)     KJ/KG-MOL      K  
             H2                           1.0000000         0.000      0.000

 O/F=    0.00000  %FUEL=100.000000  R,EQ.RATIO= 0.000000  PHI,EQ.RATIO= 0.000000

 THERMODYNAMIC PROPERTIES

 P, BAR           0.54000  0.54000  0.54000  0.54000  0.54000  0.54000  0.54000  0.54000
 T, K             4200.00  4210.00  4220.00  4230.00  4240.00  4250.00  4260.00  4270.00
 RHO, KG/CU M    1.6994-3 1.6918-3 1.6842-3 1.6768-3 1.6695-3 1.6623-3 1.6552-3 1.6483-3
 H, KJ/KG        258644.5 259760.3 260856.4 261932.8 262989.8 264027.8 265046.9 266047.6
 U, KJ/KG        226869.4 227840.7 228793.5 229727.7 230643.8 231542.0 232422.5 233285.6
 G, KJ/KG       -435019.5-436670.6-438326.1-439984.2-441644.9-443308.0-444973.5-446641.4
 S, KJ/(KG)(K)   165.1581 165.4230 165.6830 165.9378 166.1874 166.4319 166.6715 166.9061

 M, (1/n)           1.099    1.097    1.094    1.092    1.090    1.088    1.086    1.084
 (dLV/dLP)t      -1.06912 -1.06780 -1.06648 -1.06517 -1.06388 -1.06261 -1.06135 -1.06011
 (dLV/dLT)p        1.9175   1.8978   1.8782   1.8590   1.8401   1.8214   1.8031   1.7850
 Cp, KJ/(KG)(K)  112.5845 110.5886 108.6158 106.6683 104.7468 102.8521 100.9851  99.1462
 GAMMAs            1.2165   1.2182   1.2200   1.2217   1.2236   1.2254   1.2273   1.2292
 SON VEL,M/SEC     6217.2   6235.7   6254.2   6272.7   6291.0   6309.4   6327.7   6346.0

 TRANSPORT PROPERTIES (GASES ONLY)
   CONDUCTIVITY IN UNITS OF MILLIWATTS/(CM)(K)

 VISC,MILLIPOISE  0.54541  0.54482  0.54425  0.54370  0.54318  0.54268  0.54220  0.54175

  WITH EQUILIBRIUM REACTIONS

 Cp, KJ/(KG)(K)  112.5843 110.5886 108.6158 106.6683 104.7468 102.8521 100.9851  99.1462
 CONDUCTIVITY    102.0930 100.2124  98.3594  96.5344  94.7379  92.9704  91.2323  89.5238
 PRANDTL NUMBER    0.6015   0.6012   0.6010   0.6008   0.6006   0.6004   0.6002   0.6000

  WITH FROZEN REACTIONS

 Cp, KJ/(KG)(K)   20.4480  20.4536  20.4590  20.4643  20.4694  20.4744  20.4793  20.4840
 CONDUCTIVITY     15.8508  15.8516  15.8533  15.8555  15.8581  15.8612  15.8647  15.8687
 PRANDTL NUMBER    0.7036   0.7030   0.7024   0.7017   0.7011   0.7005   0.6999   0.6993

 MOLE FRACTIONS

 *H               0.90965  0.91201  0.91429  0.91652  0.91870  0.92081  0.92287  0.92487
 *H2              0.09035  0.08799  0.08570  0.08348  0.08130  0.07919  0.07713  0.07513

  * THERMODYNAMIC PROPERTIES FITTED TO 20000.K

 NOTE. WEIGHT FRACTION OF FUEL IN TOTAL FUELS AND OF OXIDANT IN TOTAL OXIDANTS









               THERMODYNAMIC EQUILIBRIUM PROPERTIES AT ASSIGNED

                           TEMPERATURE AND PRESSURE

 CASE =                

             REACTANT                    WT FRACTION      ENERGY      TEMP
                                          (SEE NOTE)     KJ/KG-MOL      K  
             H2                           1.0000000         0.000      0.000

 O/F=    0.00000  %FUEL=100.000000  R,EQ.RATIO= 0.000000  PHI,EQ.RATIO= 0.000000

 THERMODYNAMIC PROPERTIES

 P, BAR           0.54000  0.54000  0.54000  0.54000  0.54000  0.54000  0.54000  0.60000
 T, K             4280.00  4290.00  4300.00  4310.00  4320.00  4330.00  4340.00  4200.00
 RHO, KG/CU M    1.6414-3 1.6347-3 1.6281-3 1.6216-3 1.6152-3 1.6089-3 1.6027-3 1.9025-3
 H, KJ/KG        267030.0 267994.4 268941.2 269870.6 270782.9 271678.5 272557.7 255484.8
 U, KJ/KG        234131.6 234960.8 235773.3 236569.6 237349.9 238114.5 238863.7 223947.8
 G, KJ/KG       -448311.6-449984.1-451658.8-453335.7-455014.7-456695.8-458379.0-431682.3
 S, KJ/(KG)(K)   167.1359 167.3609 167.5814 167.7973 168.0087 168.2158 168.4186 163.6112

 M, (1/n)           1.082    1.080    1.078    1.076    1.074    1.073    1.071    1.107
 (dLV/dLP)t      -1.05889 -1.05768 -1.05649 -1.05532 -1.05417 -1.05304 -1.05192 -1.07363
 (dLV/dLT)p        1.7673   1.7499   1.7327   1.7159   1.6994   1.6832   1.6673   1.9773
 Cp, KJ/(KG)(K)   97.3362  95.5553  93.8042  92.0830  90.3922  88.7319  87.1022 117.8324
 GAMMAs            1.2312   1.2331   1.2352   1.2372   1.2393   1.2414   1.2436   1.2129
 SON VEL,M/SEC     6364.2   6382.4   6400.6   6418.8   6436.9   6455.0   6473.1   6184.7

 TRANSPORT PROPERTIES (GASES ONLY)
   CONDUCTIVITY IN UNITS OF MILLIWATTS/(CM)(K)

 VISC,MILLIPOISE  0.54132  0.54091  0.54053  0.54017  0.53983  0.53951  0.53922  0.55113

  WITH EQUILIBRIUM REACTIONS

 Cp, KJ/(KG)(K)   97.3362  95.5553  93.8042  92.0830  90.3922  88.7319  87.1022 117.8324
 CONDUCTIVITY     87.8452  86.1967  84.5784  82.9904  81.4328  79.9055  78.4085 107.8122
 PRANDTL NUMBER    0.5998   0.5996   0.5995   0.5993   0.5992   0.5991   0.5990   0.6024

  WITH FROZEN REACTIONS

 Cp, KJ/(KG)(K)   20.4885  20.4929  20.4972  20.5013  20.5054  20.5093  20.5130  20.4335
 CONDUCTIVITY     15.8732  15.8781  15.8834  15.8892  15.8954  15.9021  15.9092  15.9566
 PRANDTL NUMBER    0.6987   0.6981   0.6975   0.6970   0.6964   0.6958   0.6953   0.7058

 MOLE FRACTIONS

 *H               0.92682  0.92872  0.93057  0.93236  0.93411  0.93582  0.93747  0.90142
 *H2              0.07318  0.07128  0.06943  0.06763  0.06589  0.06418  0.06253  0.09858

  * THERMODYNAMIC PROPERTIES FITTED TO 20000.K

 NOTE. WEIGHT FRACTION OF FUEL IN TOTAL FUELS AND OF OXIDANT IN TOTAL OXIDANTS









               THERMODYNAMIC EQUILIBRIUM PROPERTIES AT ASSIGNED

                           TEMPERATURE AND PRESSURE

 CASE =                

             REACTANT                    WT FRACTION      ENERGY      TEMP
                                          (SEE NOTE)     KJ/KG-MOL      K  
             H2                           1.0000000         0.000      0.000

 O/F=    0.00000  %FUEL=100.000000  R,EQ.RATIO= 0.000000  PHI,EQ.RATIO= 0.000000

 THERMODYNAMIC PROPERTIES

 P, BAR           0.60000  0.60000  0.60000  0.60000  0.60000  0.60000  0.60000  0.60000
 T, K             4210.00  4220.00  4230.00  4240.00  4250.00  4260.00  4270.00  4280.00
 RHO, KG/CU M    1.8936-3 1.8849-3 1.8763-3 1.8679-3 1.8596-3 1.8515-3 1.8434-3 1.8356-3
 H, KJ/KG        256653.1 257801.4 258929.9 260038.8 261128.3 262198.8 263250.3 264283.2
 U, KJ/KG        224968.2 225969.7 226952.7 227917.2 228863.6 229791.9 230702.6 231595.7
 G, KJ/KG       -433319.8-434960.0-436603.0-438248.6-439896.8-441547.5-443200.7-444856.4
 S, KJ/(KG)(K)   163.8890 164.1615 164.4286 164.6904 164.9471 165.1987 165.4452 165.6868

 M, (1/n)           1.105    1.102    1.100    1.098    1.095    1.093    1.091    1.089
 (dLV/dLP)t      -1.07227 -1.07093 -1.06960 -1.06829 -1.06698 -1.06569 -1.06442 -1.06316
 (dLV/dLT)p        1.9571   1.9371   1.9174   1.8980   1.8788   1.8599   1.8413   1.8229
 Cp, KJ/(KG)(K)  115.8235 113.8340 111.8653 109.9185 107.9947 106.0946 104.2193 102.3696
 GAMMAs            1.2145   1.2161   1.2178   1.2195   1.2212   1.2230   1.2248   1.2266
 SON VEL,M/SEC     6203.3   6221.8   6240.3   6258.8   6277.2   6295.5   6313.9   6332.1

 TRANSPORT PROPERTIES (GASES ONLY)
   CONDUCTIVITY IN UNITS OF MILLIWATTS/(CM)(K)

 VISC,MILLIPOISE  0.55048  0.54985  0.54924  0.54865  0.54809  0.54754  0.54702  0.54652

  WITH EQUILIBRIUM REACTIONS

 Cp, KJ/(KG)(K)  115.8235 113.8340 111.8653 109.9185 107.9947 106.0946 104.2193 102.3696
 CONDUCTIVITY    105.8913 103.9945 102.1226 100.2764  98.4565  96.6634  94.8977  93.1599
 PRANDTL NUMBER    0.6021   0.6019   0.6016   0.6014   0.6012   0.6010   0.6008   0.6006

  WITH FROZEN REACTIONS

 Cp, KJ/(KG)(K)   20.4395  20.4453  20.4509  20.4564  20.4617  20.4669  20.4719  20.4768
 CONDUCTIVITY     15.9565  15.9568  15.9575  15.9587  15.9603  15.9624  15.9650  15.9680
 PRANDTL NUMBER    0.7051   0.7045   0.7039   0.7033   0.7027   0.7021   0.7014   0.7008

 MOLE FRACTIONS

 *H               0.90395  0.90641  0.90881  0.91114  0.91342  0.91564  0.91780  0.91990
 *H2              0.09605  0.09359  0.09119  0.08886  0.08658  0.08436  0.08220  0.08010

  * THERMODYNAMIC PROPERTIES FITTED TO 20000.K

 NOTE. WEIGHT FRACTION OF FUEL IN TOTAL FUELS AND OF OXIDANT IN TOTAL OXIDANTS









               THERMODYNAMIC EQUILIBRIUM PROPERTIES AT ASSIGNED

                           TEMPERATURE AND PRESSURE

 CASE =                

             REACTANT                    WT FRACTION      ENERGY      TEMP
                                          (SEE NOTE)     KJ/KG-MOL      K  
             H2                           1.0000000         0.000      0.000

 O/F=    0.00000  %FUEL=100.000000  R,EQ.RATIO= 0.000000  PHI,EQ.RATIO= 0.000000

 THERMODYNAMIC PROPERTIES

 P, BAR           0.60000  0.60000  0.60000  0.60000  0.60000  0.60000  0.67000  0.67000
 T, K             4290.00  4300.00  4310.00  4320.00  4330.00  4340.00  4200.00  4210.00
 RHO, KG/CU M    1.8278-3 1.8202-3 1.8127-3 1.8053-3 1.7980-3 1.7909-3 2.1424-3 2.1321-3
 H, KJ/KG        265297.8 266294.2 267272.9 268233.9 269177.7 270104.5 251988.8 253211.3
 U, KJ/KG        232471.6 233330.5 234172.7 234998.4 235807.9 236601.4 220715.1 221786.2
 G, KJ/KG       -446514.4-448174.8-449837.5-451502.5-453169.6-454838.9-428216.7-429837.6
 S, KJ/(KG)(K)   165.9236 166.1556 166.3829 166.6057 166.8239 167.0377 161.9537 162.2444

 M, (1/n)           1.087    1.085    1.083    1.081    1.079    1.077    1.117    1.114
 (dLV/dLP)t      -1.06192 -1.06069 -1.05948 -1.05828 -1.05710 -1.05594 -1.07839 -1.07702
 (dLV/dLT)p        1.8049   1.7871   1.7696   1.7525   1.7356   1.7190   2.0404   2.0200
 Cp, KJ/(KG)(K)  100.5460  98.7492  96.9799  95.2384  93.5252  91.8406 123.2446 121.2409
 GAMMAs            1.2285   1.2304   1.2323   1.2343   1.2363   1.2383   1.2094   1.2109
 SON VEL,M/SEC     6350.3   6368.5   6386.7   6404.8   6422.9   6441.0   6150.0   6168.7

 TRANSPORT PROPERTIES (GASES ONLY)
   CONDUCTIVITY IN UNITS OF MILLIWATTS/(CM)(K)

 VISC,MILLIPOISE  0.54605  0.54560  0.54517  0.54476  0.54437  0.54401  0.55737  0.55666

  WITH EQUILIBRIUM REACTIONS

 Cp, KJ/(KG)(K)  100.5460  98.7492  96.9799  95.2384  93.5252  91.8406 123.2446 121.2409
 CONDUCTIVITY     91.4502  89.7689  88.1164  86.4929  84.8984  83.3331 113.8656 111.9162
 PRANDTL NUMBER    0.6004   0.6002   0.6000   0.5998   0.5997   0.5995   0.6033   0.6030

  WITH FROZEN REACTIONS

 Cp, KJ/(KG)(K)   20.4815  20.4861  20.4905  20.4949  20.4991  20.5031  20.4175  20.4238
 CONDUCTIVITY     15.9715  15.9754  15.9797  15.9845  15.9898  15.9954  16.0739  16.0723
 PRANDTL NUMBER    0.7002   0.6996   0.6991   0.6985   0.6979   0.6973   0.7080   0.7074

 MOLE FRACTIONS

 *H               0.92195  0.92395  0.92589  0.92778  0.92963  0.93142  0.89217  0.89488
 *H2              0.07805  0.07605  0.07411  0.07222  0.07037  0.06858  0.10783  0.10512

  * THERMODYNAMIC PROPERTIES FITTED TO 20000.K

 NOTE. WEIGHT FRACTION OF FUEL IN TOTAL FUELS AND OF OXIDANT IN TOTAL OXIDANTS









               THERMODYNAMIC EQUILIBRIUM PROPERTIES AT ASSIGNED

                           TEMPERATURE AND PRESSURE

 CASE =                

             REACTANT                    WT FRACTION      ENERGY      TEMP
                                          (SEE NOTE)     KJ/KG-MOL      K  
             H2                           1.0000000         0.000      0.000

 O/F=    0.00000  %FUEL=100.000000  R,EQ.RATIO= 0.000000  PHI,EQ.RATIO= 0.000000

 THERMODYNAMIC PROPERTIES

 P, BAR           0.67000  0.67000  0.67000  0.67000  0.67000  0.67000  0.67000  0.67000
 T, K             4220.00  4230.00  4240.00  4250.00  4260.00  4270.00  4280.00  4290.00
 RHO, KG/CU M    2.1219-3 2.1119-3 2.1021-3 2.0925-3 2.0830-3 2.0737-3 2.0646-3 2.0556-3
 H, KJ/KG        254413.7 255596.3 256759.3 257902.8 259027.0 260132.1 261218.3 262285.9
 U, KJ/KG        222838.5 223872.1 224887.1 225883.9 226862.5 227823.1 228766.0 229691.4
 G, KJ/KG       -431461.5-433088.2-434717.6-436349.8-437984.7-439622.2-441262.2-442904.8
 S, KJ/(KG)(K)   162.5297 162.8096 163.0842 163.3536 163.6178 163.8769 164.1310 164.3801

 M, (1/n)           1.111    1.109    1.106    1.104    1.101    1.099    1.097    1.094
 (dLV/dLP)t      -1.07567 -1.07432 -1.07299 -1.07166 -1.07035 -1.06905 -1.06776 -1.06648
 (dLV/dLT)p        1.9997   1.9796   1.9598   1.9402   1.9208   1.9017   1.8829   1.8642
 Cp, KJ/(KG)(K)  119.2514 117.2773 115.3202 113.3813 111.4618 109.5626 107.6850 105.8298
 GAMMAs            1.2125   1.2140   1.2156   1.2172   1.2189   1.2206   1.2223   1.2240
 SON VEL,M/SEC     6187.4   6206.0   6224.5   6243.0   6261.4   6279.8   6298.1   6316.4

 TRANSPORT PROPERTIES (GASES ONLY)
   CONDUCTIVITY IN UNITS OF MILLIWATTS/(CM)(K)

 VISC,MILLIPOISE  0.55597  0.55530  0.55465  0.55402  0.55342  0.55283  0.55227  0.55172

  WITH EQUILIBRIUM REACTIONS

 Cp, KJ/(KG)(K)  119.2514 117.2773 115.3202 113.3813 111.4618 109.5626 107.6850 105.8298
 CONDUCTIVITY    109.9869 108.0787 106.1925 104.3293 102.4897 100.6745  98.8843  97.1197
 PRANDTL NUMBER    0.6028   0.6026   0.6023   0.6021   0.6019   0.6016   0.6014   0.6012

  WITH FROZEN REACTIONS

 Cp, KJ/(KG)(K)   20.4300  20.4360  20.4419  20.4476  20.4531  20.4585  20.4637  20.4687
 CONDUCTIVITY     16.0712  16.0705  16.0702  16.0704  16.0711  16.0722  16.0737  16.0757
 PRANDTL NUMBER    0.7068   0.7061   0.7055   0.7049   0.7043   0.7037   0.7031   0.7025

 MOLE FRACTIONS

 *H               0.89753  0.90011  0.90262  0.90507  0.90747  0.90980  0.91207  0.91429
 *H2              0.10247  0.09989  0.09738  0.09492  0.09253  0.09020  0.08793  0.08571

  * THERMODYNAMIC PROPERTIES FITTED TO 20000.K

 NOTE. WEIGHT FRACTION OF FUEL IN TOTAL FUELS AND OF OXIDANT IN TOTAL OXIDANTS









               THERMODYNAMIC EQUILIBRIUM PROPERTIES AT ASSIGNED

                           TEMPERATURE AND PRESSURE

 CASE =                

             REACTANT                    WT FRACTION      ENERGY      TEMP
                                          (SEE NOTE)     KJ/KG-MOL      K  
             H2                           1.0000000         0.000      0.000

 O/F=    0.00000  %FUEL=100.000000  R,EQ.RATIO= 0.000000  PHI,EQ.RATIO= 0.000000

 THERMODYNAMIC PROPERTIES

 P, BAR           0.67000  0.67000  0.67000  0.67000  0.67000  0.74000  0.74000  0.74000
 T, K             4300.00  4310.00  4320.00  4330.00  4340.00  4200.00  4210.00  4220.00
 RHO, KG/CU M    2.0467-3 2.0380-3 2.0294-3 2.0210-3 2.0127-3 2.3852-3 2.3734-3 2.3618-3
 H, KJ/KG        263335.0 264365.9 265378.9 266374.1 267351.9 248680.2 249950.2 251200.5
 U, KJ/KG        230599.4 231490.4 232364.4 233221.9 234063.0 217655.8 218771.5 219868.5
 G, KJ/KG       -444549.8-446197.2-447847.1-449499.2-451153.6-425121.2-426727.0-428335.7
 S, KJ/(KG)(K)   164.6244 164.8638 165.0986 165.3287 165.5543 160.4289 160.7309 161.0275

 M, (1/n)           1.092    1.090    1.088    1.086    1.084    1.126    1.123    1.120
 (dLV/dLP)t      -1.06522 -1.06397 -1.06274 -1.06152 -1.06032 -1.08268 -1.08132 -1.07996
 (dLV/dLT)p        1.8459   1.8278   1.8100   1.7925   1.7752   2.0974   2.0768   2.0564
 Cp, KJ/(KG)(K)  103.9978 102.1898 100.4065  98.6486  96.9165 127.9928 126.0105 124.0370
 GAMMAs            1.2258   1.2276   1.2294   1.2313   1.2332   1.2066   1.2080   1.2094
 SON VEL,M/SEC     6334.6   6352.8   6371.0   6389.1   6407.2   6118.2   6137.0   6155.8

 TRANSPORT PROPERTIES (GASES ONLY)
   CONDUCTIVITY IN UNITS OF MILLIWATTS/(CM)(K)

 VISC,MILLIPOISE  0.55120  0.55070  0.55022  0.54976  0.54933  0.56318  0.56243  0.56169

  WITH EQUILIBRIUM REACTIONS

 Cp, KJ/(KG)(K)  103.9978 102.1898 100.4065  98.6486  96.9165 127.9928 126.0105 124.0370
 CONDUCTIVITY     95.3811  93.6692  91.9841  90.3263  88.6959 119.3285 117.3670 115.4215
 PRANDTL NUMBER    0.6010   0.6008   0.6006   0.6004   0.6002   0.6041   0.6038   0.6036

  WITH FROZEN REACTIONS

 Cp, KJ/(KG)(K)   20.4737  20.4785  20.4831  20.4876  20.4920  20.4023  20.4090  20.4155
 CONDUCTIVITY     16.0781  16.0809  16.0842  16.0880  16.0921  16.1845  16.1818  16.1794
 PRANDTL NUMBER    0.7019   0.7013   0.7007   0.7001   0.6995   0.7099   0.7094   0.7088

 MOLE FRACTIONS

 *H               0.91645  0.91855  0.92060  0.92260  0.92454  0.88327  0.88615  0.88897
 *H2              0.08355  0.08145  0.07940  0.07740  0.07545  0.11673  0.11385  0.11103

  * THERMODYNAMIC PROPERTIES FITTED TO 20000.K

 NOTE. WEIGHT FRACTION OF FUEL IN TOTAL FUELS AND OF OXIDANT IN TOTAL OXIDANTS









               THERMODYNAMIC EQUILIBRIUM PROPERTIES AT ASSIGNED

                           TEMPERATURE AND PRESSURE

 CASE =                

             REACTANT                    WT FRACTION      ENERGY      TEMP
                                          (SEE NOTE)     KJ/KG-MOL      K  
             H2                           1.0000000         0.000      0.000

 O/F=    0.00000  %FUEL=100.000000  R,EQ.RATIO= 0.000000  PHI,EQ.RATIO= 0.000000

 THERMODYNAMIC PROPERTIES

 P, BAR           0.74000  0.74000  0.74000  0.74000  0.74000  0.74000  0.74000  0.74000
 T, K             4230.00  4240.00  4250.00  4260.00  4270.00  4280.00  4290.00  4300.00
 RHO, KG/CU M    2.3504-3 2.3392-3 2.3281-3 2.3173-3 2.3066-3 2.2962-3 2.2858-3 2.2757-3
 H, KJ/KG        252431.0 253642.0 254833.5 256005.8 257158.8 258292.9 259408.2 260504.9
 U, KJ/KG        220946.9 222006.9 223048.5 224072.0 225077.5 226065.1 227035.1 227987.5
 G, KJ/KG       -429947.5-431562.1-433179.6-434799.8-436422.8-438048.4-439676.7-441307.5
 S, KJ/(KG)(K)   161.3188 161.6047 161.8854 162.1609 162.4313 162.6966 162.9569 163.2122

 M, (1/n)           1.117    1.114    1.112    1.109    1.107    1.104    1.102    1.099
 (dLV/dLP)t      -1.07861 -1.07727 -1.07593 -1.07461 -1.07329 -1.07198 -1.07068 -1.06940
 (dLV/dLT)p        2.0362   2.0161   1.9962   1.9766   1.9571   1.9379   1.9189   1.9001
 Cp, KJ/(KG)(K)  122.0740 120.1230 118.1854 116.2627 114.3561 112.4668 110.5960 108.7446
 GAMMAs            1.2109   1.2124   1.2139   1.2155   1.2171   1.2187   1.2203   1.2220
 SON VEL,M/SEC     6174.5   6193.1   6211.7   6230.2   6248.6   6267.0   6285.4   6303.7

 TRANSPORT PROPERTIES (GASES ONLY)
   CONDUCTIVITY IN UNITS OF MILLIWATTS/(CM)(K)

 VISC,MILLIPOISE  0.56098  0.56028  0.55960  0.55894  0.55830  0.55768  0.55707  0.55649

  WITH EQUILIBRIUM REACTIONS

 Cp, KJ/(KG)(K)  122.0740 120.1230 118.1854 116.2627 114.3561 112.4668 110.5960 108.7446
 CONDUCTIVITY    113.4931 111.5831 109.6924 107.8220 105.9728 104.1455 102.3411 100.5600
 PRANDTL NUMBER    0.6034   0.6032   0.6029   0.6027   0.6025   0.6022   0.6020   0.6018

  WITH FROZEN REACTIONS

 Cp, KJ/(KG)(K)   20.4219  20.4281  20.4341  20.4399  20.4456  20.4512  20.4566  20.4618
 CONDUCTIVITY     16.1775  16.1760  16.1750  16.1743  16.1741  16.1744  16.1750  16.1761
 PRANDTL NUMBER    0.7082   0.7076   0.7069   0.7063   0.7057   0.7051   0.7045   0.7039

 MOLE FRACTIONS

 *H               0.89172  0.89440  0.89702  0.89957  0.90206  0.90449  0.90686  0.90918
 *H2              0.10828  0.10560  0.10298  0.10043  0.09794  0.09551  0.09314  0.09082

  * THERMODYNAMIC PROPERTIES FITTED TO 20000.K

 NOTE. WEIGHT FRACTION OF FUEL IN TOTAL FUELS AND OF OXIDANT IN TOTAL OXIDANTS









               THERMODYNAMIC EQUILIBRIUM PROPERTIES AT ASSIGNED

                           TEMPERATURE AND PRESSURE

 CASE =                

             REACTANT                    WT FRACTION      ENERGY      TEMP
                                          (SEE NOTE)     KJ/KG-MOL      K  
             H2                           1.0000000         0.000      0.000

 O/F=    0.00000  %FUEL=100.000000  R,EQ.RATIO= 0.000000  PHI,EQ.RATIO= 0.000000

 THERMODYNAMIC PROPERTIES

 P, BAR           0.74000  0.74000  0.74000  0.74000  0.82500  0.82500  0.82500  0.82500
 T, K             4310.00  4320.00  4330.00  4340.00  4200.00  4210.00  4220.00  4230.00
 RHO, KG/CU M    2.2657-3 2.2559-3 2.2463-3 2.2368-3 2.6839-3 2.6702-3 2.6568-3 2.6435-3
 H, KJ/KG        261583.2 262643.3 263685.4 264709.7 244891.5 246211.7 247512.5 248794.0
 U, KJ/KG        228922.7 229840.7 230741.9 231626.3 214152.5 215315.2 216459.6 217585.8
 G, KJ/KG       -442940.9-444576.8-446215.1-447855.7-421763.2-423352.0-424944.0-426539.0
 S, KJ/(KG)(K)   163.4627 163.7083 163.9493 164.1856 158.7273 159.0413 159.3499 159.6532

 M, (1/n)           1.097    1.095    1.093    1.091    1.136    1.133    1.130    1.127
 (dLV/dLP)t      -1.06812 -1.06686 -1.06561 -1.06438 -1.08733 -1.08599 -1.08465 -1.08330
 (dLV/dLT)p        1.8816   1.8633   1.8452   1.8275   2.1592   2.1387   2.1183   2.0980
 Cp, KJ/(KG)(K)  106.9137 105.1042 103.3168 101.5523 132.9920 131.0517 129.1142 127.1812
 GAMMAs            1.2237   1.2254   1.2272   1.2290   1.2037   1.2050   1.2064   1.2078
 SON VEL,M/SEC     6321.9   6340.1   6358.3   6376.4   6082.8   6101.8   6120.6   6139.4

 TRANSPORT PROPERTIES (GASES ONLY)
   CONDUCTIVITY IN UNITS OF MILLIWATTS/(CM)(K)

 VISC,MILLIPOISE  0.55593  0.55540  0.55488  0.55438  0.56972  0.56893  0.56815  0.56739

  WITH EQUILIBRIUM REACTIONS

 Cp, KJ/(KG)(K)  106.9137 105.1042 103.3168 101.5523 132.9920 131.0517 129.1142 127.1812
 CONDUCTIVITY     98.8031  97.0707  95.3634  93.6816 125.2665 123.3077 121.3599 119.4246
 PRANDTL NUMBER    0.6016   0.6014   0.6012   0.6010   0.6049   0.6047   0.6045   0.6042

  WITH FROZEN REACTIONS

 Cp, KJ/(KG)(K)   20.4669  20.4718  20.4766  20.4813  20.3850  20.3920  20.3989  20.4056
 CONDUCTIVITY     16.1777  16.1796  16.1820  16.1849  16.3107  16.3068  16.3033  16.3001
 PRANDTL NUMBER    0.7033   0.7027   0.7021   0.7015   0.7120   0.7115   0.7109   0.7103

 MOLE FRACTIONS

 *H               0.91143  0.91363  0.91577  0.91786  0.87290  0.87598  0.87898  0.88192
 *H2              0.08857  0.08637  0.08423  0.08214  0.12710  0.12402  0.12102  0.11808

  * THERMODYNAMIC PROPERTIES FITTED TO 20000.K

 NOTE. WEIGHT FRACTION OF FUEL IN TOTAL FUELS AND OF OXIDANT IN TOTAL OXIDANTS









               THERMODYNAMIC EQUILIBRIUM PROPERTIES AT ASSIGNED

                           TEMPERATURE AND PRESSURE

 CASE =                

             REACTANT                    WT FRACTION      ENERGY      TEMP
                                          (SEE NOTE)     KJ/KG-MOL      K  
             H2                           1.0000000         0.000      0.000

 O/F=    0.00000  %FUEL=100.000000  R,EQ.RATIO= 0.000000  PHI,EQ.RATIO= 0.000000

 THERMODYNAMIC PROPERTIES

 P, BAR           0.82500  0.82500  0.82500  0.82500  0.82500  0.82500  0.82500  0.82500
 T, K             4240.00  4250.00  4260.00  4270.00  4280.00  4290.00  4300.00  4310.00
 RHO, KG/CU M    2.6305-3 2.6178-3 2.6052-3 2.5928-3 2.5807-3 2.5687-3 2.5570-3 2.5454-3
 H, KJ/KG        250056.1 251299.1 252522.9 253727.7 254913.5 256080.5 257228.9 258358.8
 U, KJ/KG        218693.7 219783.5 220855.3 221909.1 222945.1 223963.4 224964.1 225947.5
 G, KJ/KG       -428137.0-429738.0-431341.9-432948.6-434558.1-436170.4-437785.4-439403.0
 S, KJ/(KG)(K)   159.9512 160.2440 160.5316 160.8141 161.0915 161.3639 161.6312 161.8937

 M, (1/n)           1.124    1.121    1.118    1.116    1.113    1.111    1.108    1.106
 (dLV/dLP)t      -1.08196 -1.08063 -1.07930 -1.07797 -1.07666 -1.07535 -1.07404 -1.07275
 (dLV/dLT)p        2.0779   2.0578   2.0380   2.0183   1.9988   1.9795   1.9604   1.9415
 Cp, KJ/(KG)(K)  125.2545 123.3357 121.4264 119.5279 117.6418 115.7693 113.9117 112.0701
 GAMMAs            1.2092   1.2106   1.2121   1.2136   1.2151   1.2166   1.2182   1.2198
 SON VEL,M/SEC     6158.2   6176.8   6195.5   6214.0   6232.5   6250.9   6269.3   6287.6

 TRANSPORT PROPERTIES (GASES ONLY)
   CONDUCTIVITY IN UNITS OF MILLIWATTS/(CM)(K)

 VISC,MILLIPOISE  0.56665  0.56592  0.56521  0.56451  0.56384  0.56318  0.56254  0.56192

  WITH EQUILIBRIUM REACTIONS

 Cp, KJ/(KG)(K)  125.2545 123.3357 121.4264 119.5279 117.6418 115.7693 113.9117 112.0701
 CONDUCTIVITY    117.5029 115.5963 113.7057 111.8323 109.9770 108.1409 106.3248 104.5296
 PRANDTL NUMBER    0.6040   0.6038   0.6036   0.6034   0.6031   0.6029   0.6027   0.6025

  WITH FROZEN REACTIONS

 Cp, KJ/(KG)(K)   20.4122  20.4186  20.4248  20.4308  20.4367  20.4425  20.4480  20.4535
 CONDUCTIVITY     16.2974  16.2950  16.2931  16.2915  16.2904  16.2897  16.2894  16.2895
 PRANDTL NUMBER    0.7097   0.7091   0.7085   0.7079   0.7074   0.7068   0.7062   0.7056

 MOLE FRACTIONS

 *H               0.88479  0.88759  0.89032  0.89300  0.89560  0.89815  0.90064  0.90306
 *H2              0.11521  0.11241  0.10968  0.10700  0.10440  0.10185  0.09936  0.09694

  * THERMODYNAMIC PROPERTIES FITTED TO 20000.K

 NOTE. WEIGHT FRACTION OF FUEL IN TOTAL FUELS AND OF OXIDANT IN TOTAL OXIDANTS









               THERMODYNAMIC EQUILIBRIUM PROPERTIES AT ASSIGNED

                           TEMPERATURE AND PRESSURE

 CASE =                

             REACTANT                    WT FRACTION      ENERGY      TEMP
                                          (SEE NOTE)     KJ/KG-MOL      K  
             H2                           1.0000000         0.000      0.000

 O/F=    0.00000  %FUEL=100.000000  R,EQ.RATIO= 0.000000  PHI,EQ.RATIO= 0.000000

 THERMODYNAMIC PROPERTIES

 P, BAR           0.82500  0.82500  0.82500  0.91000  0.91000  0.91000  0.91000  0.91000
 T, K             4320.00  4330.00  4340.00  4200.00  4210.00  4220.00  4230.00  4240.00
 RHO, KG/CU M    2.5340-3 2.5228-3 2.5118-3 2.9865-3 2.9709-3 2.9555-3 2.9404-3 2.9256-3
 H, KJ/KG        259470.4 260563.8 261639.2 241330.0 242693.3 244037.8 245363.3 246670.0
 U, KJ/KG        226913.6 227862.6 228794.8 210859.4 212062.6 213247.9 214415.4 215565.0
 G, KJ/KG       -441023.3-442646.0-444271.3-418761.9-420335.2-421911.7-423491.4-425074.1
 S, KJ/(KG)(K)   162.1513 162.4041 162.6522 157.1648 157.4890 157.8079 158.1217 158.4302

 M, (1/n)           1.103    1.101    1.099    1.146    1.143    1.140    1.136    1.133
 (dLV/dLP)t      -1.07147 -1.07020 -1.06894 -1.09147 -1.09015 -1.08882 -1.08750 -1.08618
 (dLV/dLT)p        1.9228   1.9043   1.8860   2.2140   2.1937   2.1735   2.1533   2.1332
 Cp, KJ/(KG)(K)  110.2457 108.4395 106.6523 137.2730 135.3875 133.4991 131.6098 129.7213
 GAMMAs            1.2214   1.2230   1.2247   1.2013   1.2026   1.2039   1.2052   1.2065
 SON VEL,M/SEC     6305.9   6324.1   6342.3   6050.3   6069.3   6088.3   6107.2   6126.1

 TRANSPORT PROPERTIES (GASES ONLY)
   CONDUCTIVITY IN UNITS OF MILLIWATTS/(CM)(K)

 VISC,MILLIPOISE  0.56132  0.56075  0.56019  0.57576  0.57494  0.57414  0.57335  0.57257

  WITH EQUILIBRIUM REACTIONS

 Cp, KJ/(KG)(K)  110.2457 108.4395 106.6523 137.2730 135.3875 133.4991 131.6098 129.7213
 CONDUCTIVITY    102.7558 101.0043  99.2756 130.5387 128.5974 126.6624 124.7352 122.8172
 PRANDTL NUMBER    0.6022   0.6020   0.6018   0.6055   0.6053   0.6051   0.6049   0.6048

  WITH FROZEN REACTIONS

 Cp, KJ/(KG)(K)   20.4588  20.4639  20.4689  20.3686  20.3760  20.3833  20.3903  20.3972
 CONDUCTIVITY     16.2901  16.2910  16.2925  16.4288  16.4240  16.4195  16.4153  16.4116
 PRANDTL NUMBER    0.7050   0.7044   0.7038   0.7138   0.7133   0.7127   0.7122   0.7116

 MOLE FRACTIONS

 *H               0.90543  0.90774  0.90999  0.86298  0.86623  0.86941  0.87251  0.87555
 *H2              0.09457  0.09226  0.09001  0.13702  0.13377  0.13059  0.12749  0.12445

  * THERMODYNAMIC PROPERTIES FITTED TO 20000.K

 NOTE. WEIGHT FRACTION OF FUEL IN TOTAL FUELS AND OF OXIDANT IN TOTAL OXIDANTS









               THERMODYNAMIC EQUILIBRIUM PROPERTIES AT ASSIGNED

                           TEMPERATURE AND PRESSURE

 CASE =                

             REACTANT                    WT FRACTION      ENERGY      TEMP
                                          (SEE NOTE)     KJ/KG-MOL      K  
             H2                           1.0000000         0.000      0.000

 O/F=    0.00000  %FUEL=100.000000  R,EQ.RATIO= 0.000000  PHI,EQ.RATIO= 0.000000

 THERMODYNAMIC PROPERTIES

 P, BAR           0.91000  0.91000  0.91000  0.91000  0.91000  0.91000  0.91000  0.91000
 T, K             4250.00  4260.00  4270.00  4280.00  4290.00  4300.00  4310.00  4320.00
 RHO, KG/CU M    2.9110-3 2.8966-3 2.8825-3 2.8686-3 2.8550-3 2.8416-3 2.8283-3 2.8154-3
 H, KJ/KG        247957.7 249226.7 250476.8 251708.3 252921.1 254115.3 255291.2 256448.7
 U, KJ/KG        216696.8 217810.9 218907.2 219985.8 221046.9 222090.6 223116.8 224125.9
 G, KJ/KG       -426659.9-428248.8-429840.6-431435.3-433032.8-434633.2-436236.3-437842.1
 S, KJ/(KG)(K)   158.7336 159.0318 159.3249 159.6130 159.8960 160.1741 160.4472 160.7155

 M, (1/n)           1.130    1.127    1.125    1.122    1.119    1.116    1.114    1.111
 (dLV/dLP)t      -1.08485 -1.08353 -1.08221 -1.08089 -1.07958 -1.07827 -1.07697 -1.07568
 (dLV/dLT)p        2.1132   2.0934   2.0736   2.0540   2.0345   2.0152   1.9961   1.9771
 Cp, KJ/(KG)(K)  127.8355 125.9539 124.0783 122.2101 120.3509 118.5020 116.6648 114.8405
 GAMMAs            1.2079   1.2093   1.2107   1.2121   1.2135   1.2150   1.2165   1.2180
 SON VEL,M/SEC     6144.9   6163.6   6182.2   6200.8   6219.3   6237.8   6256.2   6274.6

 TRANSPORT PROPERTIES (GASES ONLY)
   CONDUCTIVITY IN UNITS OF MILLIWATTS/(CM)(K)

 VISC,MILLIPOISE  0.57180  0.57105  0.57032  0.56960  0.56890  0.56821  0.56754  0.56690

  WITH EQUILIBRIUM REACTIONS

 Cp, KJ/(KG)(K)  127.8355 125.9539 124.0783 122.2101 120.3509 118.5020 116.6648 114.8405
 CONDUCTIVITY    120.9097 119.0142 117.1319 115.2638 113.4112 111.5750 109.7563 107.9559
 PRANDTL NUMBER    0.6046   0.6043   0.6041   0.6039   0.6037   0.6035   0.6033   0.6030

  WITH FROZEN REACTIONS

 Cp, KJ/(KG)(K)   20.4039  20.4105  20.4168  20.4230  20.4291  20.4350  20.4407  20.4463
 CONDUCTIVITY     16.4081  16.4051  16.4024  16.4002  16.3983  16.3968  16.3957  16.3950
 PRANDTL NUMBER    0.7110   0.7105   0.7099   0.7093   0.7087   0.7082   0.7076   0.7070

 MOLE FRACTIONS

 *H               0.87853  0.88143  0.88427  0.88704  0.88975  0.89240  0.89498  0.89750
 *H2              0.12147  0.11857  0.11573  0.11296  0.11025  0.10760  0.10502  0.10250

  * THERMODYNAMIC PROPERTIES FITTED TO 20000.K

 NOTE. WEIGHT FRACTION OF FUEL IN TOTAL FUELS AND OF OXIDANT IN TOTAL OXIDANTS









               THERMODYNAMIC EQUILIBRIUM PROPERTIES AT ASSIGNED

                           TEMPERATURE AND PRESSURE

 CASE =                

             REACTANT                    WT FRACTION      ENERGY      TEMP
                                          (SEE NOTE)     KJ/KG-MOL      K  
             H2                           1.0000000         0.000      0.000

 O/F=    0.00000  %FUEL=100.000000  R,EQ.RATIO= 0.000000  PHI,EQ.RATIO= 0.000000

 THERMODYNAMIC PROPERTIES

 P, BAR           0.91000  0.91000   1.0000   1.0000   1.0000   1.0000   1.0000   1.0000
 T, K             4330.00  4340.00  4200.00  4210.00  4220.00  4230.00  4240.00  4250.00
 RHO, KG/CU M    2.8026-3 2.7900-3 3.3109-3 3.2932-3 3.2758-3 3.2586-3 3.2418-3 3.2252-3
 H, KJ/KG        257588.0 258709.3 237782.6 239185.0 240569.1 241934.9 243282.4 244611.5
 U, KJ/KG        225117.8 226092.8 207579.3 208819.2 210041.8 211247.1 212435.1 213605.6
 G, KJ/KG       -439450.6-441061.6-415900.8-417458.8-419020.2-420584.8-422152.7-423723.7
 S, KJ/(KG)(K)   160.9789 161.2376 155.6389 155.9724 156.3008 156.6241 156.9422 157.2553

 M, (1/n)           1.109    1.106    1.156    1.153    1.149    1.146    1.143    1.140
 (dLV/dLP)t      -1.07440 -1.07312 -1.09534 -1.09406 -1.09277 -1.09147 -1.09017 -1.08887
 (dLV/dLT)p        1.9584   1.9398   2.2655   2.2455   2.2256   2.2057   2.1858   2.1659
 Cp, KJ/(KG)(K)  113.0304 111.2355 141.1426 139.3245 137.4982 135.6655 133.8285 131.9889
 GAMMAs            1.2196   1.2212   1.1993   1.2005   1.2017   1.2029   1.2042   1.2055
 SON VEL,M/SEC     6292.9   6311.1   6018.5   6037.6   6056.7   6075.8   6094.7   6113.6

 TRANSPORT PROPERTIES (GASES ONLY)
   CONDUCTIVITY IN UNITS OF MILLIWATTS/(CM)(K)

 VISC,MILLIPOISE  0.56626  0.56565  0.58166  0.58083  0.58001  0.57919  0.57839  0.57760

  WITH EQUILIBRIUM REACTIONS

 Cp, KJ/(KG)(K)  113.0304 111.2355 141.1425 139.3245 137.4982 135.6655 133.8285 131.9889
 CONDUCTIVITY    106.1747 104.4135 135.4920 133.5815 131.6725 129.7665 127.8652 125.9701
 PRANDTL NUMBER    0.6028   0.6026   0.6059   0.6058   0.6057   0.6055   0.6054   0.6052

  WITH FROZEN REACTIONS

 Cp, KJ/(KG)(K)   20.4518  20.4570  20.3524  20.3601  20.3676  20.3750  20.3822  20.3892
 CONDUCTIVITY     16.3948  16.3949  16.5458  16.5403  16.5350  16.5300  16.5253  16.5210
 PRANDTL NUMBER    0.7064   0.7058   0.7155   0.7150   0.7144   0.7139   0.7134   0.7128

 MOLE FRACTIONS

 *H               0.89997  0.90237  0.85291  0.85633  0.85968  0.86296  0.86616  0.86930
 *H2              0.10003  0.09763  0.14709  0.14367  0.14032  0.13704  0.13384  0.13070

  * THERMODYNAMIC PROPERTIES FITTED TO 20000.K

 NOTE. WEIGHT FRACTION OF FUEL IN TOTAL FUELS AND OF OXIDANT IN TOTAL OXIDANTS









               THERMODYNAMIC EQUILIBRIUM PROPERTIES AT ASSIGNED

                           TEMPERATURE AND PRESSURE

 CASE =                

             REACTANT                    WT FRACTION      ENERGY      TEMP
                                          (SEE NOTE)     KJ/KG-MOL      K  
             H2                           1.0000000         0.000      0.000

 O/F=    0.00000  %FUEL=100.000000  R,EQ.RATIO= 0.000000  PHI,EQ.RATIO= 0.000000

 THERMODYNAMIC PROPERTIES

 P, BAR            1.0000   1.0000   1.0000   1.0000   1.0000   1.0000   1.0000   1.0000
 T, K             4260.00  4270.00  4280.00  4290.00  4300.00  4310.00  4320.00  4330.00
 RHO, KG/CU M    3.2089-3 3.1929-3 3.1771-3 3.1616-3 3.1463-3 3.1313-3 3.1166-3 3.1020-3
 H, KJ/KG        245922.2 247214.5 248488.4 249743.9 250981.2 252200.2 253401.0 254583.8
 U, KJ/KG        214758.8 215894.6 217013.1 218114.2 219198.1 220264.7 221314.3 222346.9
 G, KJ/KG       -425297.8-426874.9-428455.1-430038.2-431624.2-433213.1-434804.8-436399.2
 S, KJ/(KG)(K)   157.5634 157.8664 158.1644 158.4574 158.7454 159.0286 159.3069 159.5804

 M, (1/n)           1.137    1.134    1.131    1.128    1.125    1.122    1.119    1.117
 (dLV/dLP)t      -1.08756 -1.08626 -1.08495 -1.08365 -1.08235 -1.08105 -1.07975 -1.07847
 (dLV/dLT)p        2.1462   2.1265   2.1069   2.0874   2.0680   2.0488   2.0297   2.0108
 Cp, KJ/(KG)(K)  130.1484 128.3090 126.4721 124.6394 122.8124 120.9926 119.1813 117.3800
 GAMMAs            1.2068   1.2081   1.2094   1.2108   1.2122   1.2136   1.2151   1.2165
 SON VEL,M/SEC     6132.4   6151.2   6169.9   6188.5   6207.0   6225.5   6244.0   6262.3

 TRANSPORT PROPERTIES (GASES ONLY)
   CONDUCTIVITY IN UNITS OF MILLIWATTS/(CM)(K)

 VISC,MILLIPOISE  0.57682  0.57605  0.57530  0.57456  0.57384  0.57313  0.57244  0.57176

  WITH EQUILIBRIUM REACTIONS

 Cp, KJ/(KG)(K)  130.1484 128.3090 126.4721 124.6394 122.8124 120.9925 119.1813 117.3800
 CONDUCTIVITY    124.0825 122.2039 120.3355 118.4787 116.6346 114.8044 112.9890 111.1895
 PRANDTL NUMBER    0.6050   0.6048   0.6046   0.6044   0.6042   0.6040   0.6038   0.6036

  WITH FROZEN REACTIONS

 Cp, KJ/(KG)(K)   20.3961  20.4028  20.4093  20.4156  20.4218  20.4279  20.4338  20.4395
 CONDUCTIVITY     16.5170  16.5134  16.5101  16.5071  16.5046  16.5024  16.5006  16.4992
 PRANDTL NUMBER    0.7123   0.7117   0.7112   0.7106   0.7100   0.7095   0.7089   0.7083

 MOLE FRACTIONS

 *H               0.87237  0.87537  0.87830  0.88117  0.88397  0.88671  0.88939  0.89201
 *H2              0.12763  0.12463  0.12170  0.11883  0.11603  0.11329  0.11061  0.10799

  * THERMODYNAMIC PROPERTIES FITTED TO 20000.K

 NOTE. WEIGHT FRACTION OF FUEL IN TOTAL FUELS AND OF OXIDANT IN TOTAL OXIDANTS









               THERMODYNAMIC EQUILIBRIUM PROPERTIES AT ASSIGNED

                           TEMPERATURE AND PRESSURE

 CASE =                

             REACTANT                    WT FRACTION      ENERGY      TEMP
                                          (SEE NOTE)     KJ/KG-MOL      K  
             H2                           1.0000000         0.000      0.000

 O/F=    0.00000  %FUEL=100.000000  R,EQ.RATIO= 0.000000  PHI,EQ.RATIO= 0.000000

 THERMODYNAMIC PROPERTIES

 P, BAR            1.0000   1.1000   1.1000   1.1000   1.1000   1.1000   1.1000   1.1000
 T, K             4340.00  4200.00  4210.00  4220.00  4230.00  4240.00  4250.00  4260.00
 RHO, KG/CU M    3.0877-3 3.6759-3 3.6558-3 3.6360-3 3.6166-3 3.5974-3 3.5786-3 3.5601-3
 H, KJ/KG        255748.7 234084.0 235523.0 236944.6 238348.6 239735.0 241103.6 242454.4
 U, KJ/KG        223362.5 204159.3 205433.8 206691.7 207932.9 209157.4 210365.1 211556.0
 G, KJ/KG       -437996.3-413035.3-414577.8-416123.6-417672.9-419225.4-420781.1-422340.1
 S, KJ/(KG)(K)   159.8491 154.0760 154.4182 154.7555 155.0878 155.4152 155.7376 156.0550

 M, (1/n)           1.114    1.167    1.163    1.160    1.156    1.153    1.150    1.146
 (dLV/dLP)t      -1.07718 -1.09913 -1.09789 -1.09665 -1.09539 -1.09412 -1.09285 -1.09158
 (dLV/dLT)p        1.9920   2.3158   2.2963   2.2768   2.2573   2.2378   2.2182   2.1987
 Cp, KJ/(KG)(K)  115.5899 144.7663 143.0306 141.2812 139.5201 137.7494 135.9708 134.1862
 GAMMAs            1.2180   1.1973   1.1985   1.1996   1.2008   1.2020   1.2032   1.2044
 SON VEL,M/SEC     6280.7   5985.8   6005.1   6024.3   6043.4   6062.5   6081.5   6100.4

 TRANSPORT PROPERTIES (GASES ONLY)
   CONDUCTIVITY IN UNITS OF MILLIWATTS/(CM)(K)

 VISC,MILLIPOISE  0.57110  0.58770  0.58686  0.58602  0.58520  0.58438  0.58357  0.58276

  WITH EQUILIBRIUM REACTIONS

 Cp, KJ/(KG)(K)  115.5899 144.7663 143.0306 141.2812 139.5201 137.7494 135.9708 134.1862
 CONDUCTIVITY    109.4067 140.3395 138.4742 136.6053 134.7346 132.8638 130.9944 129.1280
 PRANDTL NUMBER    0.6034   0.6062   0.6062   0.6061   0.6060   0.6059   0.6057   0.6056

  WITH FROZEN REACTIONS

 Cp, KJ/(KG)(K)   20.4451  20.3354  20.3435  20.3513  20.3590  20.3665  20.3738  20.3810
 CONDUCTIVITY     16.4982  16.6672  16.6610  16.6550  16.6493  16.6439  16.6388  16.6340
 PRANDTL NUMBER    0.7077   0.7170   0.7166   0.7161   0.7156   0.7151   0.7146   0.7140

 MOLE FRACTIONS

 *H               0.89457  0.84223  0.84582  0.84934  0.85279  0.85616  0.85946  0.86270
 *H2              0.10543  0.15777  0.15418  0.15066  0.14721  0.14384  0.14054  0.13730

  * THERMODYNAMIC PROPERTIES FITTED TO 20000.K

 NOTE. WEIGHT FRACTION OF FUEL IN TOTAL FUELS AND OF OXIDANT IN TOTAL OXIDANTS









               THERMODYNAMIC EQUILIBRIUM PROPERTIES AT ASSIGNED

                           TEMPERATURE AND PRESSURE

 CASE =                

             REACTANT                    WT FRACTION      ENERGY      TEMP
                                          (SEE NOTE)     KJ/KG-MOL      K  
             H2                           1.0000000         0.000      0.000

 O/F=    0.00000  %FUEL=100.000000  R,EQ.RATIO= 0.000000  PHI,EQ.RATIO= 0.000000

 THERMODYNAMIC PROPERTIES

 P, BAR            1.1000   1.1000   1.1000   1.1000   1.1000   1.1000   1.1000   1.1000
 T, K             4270.00  4280.00  4290.00  4300.00  4310.00  4320.00  4330.00  4340.00
 RHO, KG/CU M    3.5418-3 3.5239-3 3.5063-3 3.4889-3 3.4718-3 3.4550-3 3.4385-3 3.4223-3
 H, KJ/KG        243787.3 245102.3 246399.4 247678.6 248939.9 250183.3 251408.9 252616.8
 U, KJ/KG        212729.9 213886.9 215027.0 216150.1 217256.4 218345.8 219418.4 220474.3
 G, KJ/KG       -423902.2-425467.5-427035.7-428607.0-430181.2-431758.4-433338.3-434921.1
 S, KJ/(KG)(K)   156.3676 156.6752 156.9779 157.2757 157.5687 157.8569 158.1402 158.4189

 M, (1/n)           1.143    1.140    1.137    1.134    1.131    1.128    1.125    1.123
 (dLV/dLP)t      -1.09029 -1.08901 -1.08772 -1.08644 -1.08515 -1.08386 -1.08258 -1.08130
 (dLV/dLT)p        2.1792   2.1598   2.1404   2.1211   2.1019   2.0828   2.0638   2.0449
 Cp, KJ/(KG)(K)  132.3975 130.6063 128.8143 127.0232 125.2346 123.4499 121.6706 119.8981
 GAMMAs            1.2057   1.2070   1.2083   1.2096   1.2109   1.2123   1.2137   1.2151
 SON VEL,M/SEC     6119.3   6138.1   6156.8   6175.4   6194.0   6212.6   6231.0   6249.4

 TRANSPORT PROPERTIES (GASES ONLY)
   CONDUCTIVITY IN UNITS OF MILLIWATTS/(CM)(K)

 VISC,MILLIPOISE  0.58197  0.58119  0.58043  0.57967  0.57893  0.57820  0.57749  0.57679

  WITH EQUILIBRIUM REACTIONS

 Cp, KJ/(KG)(K)  132.3975 130.6063 128.8143 127.0232 125.2346 123.4499 121.6706 119.8981
 CONDUCTIVITY    127.2661 125.4101 123.5615 121.7214 119.8913 118.0722 116.2653 114.4716
 PRANDTL NUMBER    0.6054   0.6053   0.6051   0.6049   0.6047   0.6045   0.6043   0.6041

  WITH FROZEN REACTIONS

 Cp, KJ/(KG)(K)   20.3880  20.3948  20.4015  20.4080  20.4143  20.4205  20.4265  20.4324
 CONDUCTIVITY     16.6294  16.6252  16.6214  16.6178  16.6146  16.6118  16.6094  16.6073
 PRANDTL NUMBER    0.7135   0.7130   0.7124   0.7119   0.7113   0.7108   0.7102   0.7096

 MOLE FRACTIONS

 *H               0.86587  0.86896  0.87200  0.87496  0.87786  0.88070  0.88347  0.88619
 *H2              0.13413  0.13104  0.12800  0.12504  0.12214  0.11930  0.11653  0.11381

  * THERMODYNAMIC PROPERTIES FITTED TO 20000.K

 NOTE. WEIGHT FRACTION OF FUEL IN TOTAL FUELS AND OF OXIDANT IN TOTAL OXIDANTS









               THERMODYNAMIC EQUILIBRIUM PROPERTIES AT ASSIGNED

                           TEMPERATURE AND PRESSURE

 CASE =                

             REACTANT                    WT FRACTION      ENERGY      TEMP
                                          (SEE NOTE)     KJ/KG-MOL      K  
             H2                           1.0000000         0.000      0.000

 O/F=    0.00000  %FUEL=100.000000  R,EQ.RATIO= 0.000000  PHI,EQ.RATIO= 0.000000

 THERMODYNAMIC PROPERTIES

 P, BAR            1.2000   1.2000   1.2000   1.2000   1.2000   1.2000   1.2000   1.2000
 T, K             4200.00  4210.00  4220.00  4230.00  4240.00  4250.00  4260.00  4270.00
 RHO, KG/CU M    4.0454-3 4.0228-3 4.0007-3 3.9788-3 3.9573-3 3.9362-3 3.9154-3 3.8949-3
 H, KJ/KG        230615.6 232085.3 233538.4 234974.7 236394.1 237796.5 239181.8 240549.7
 U, KJ/KG        200952.2 202255.6 203543.2 204815.0 206070.6 207310.1 208533.3 209740.2
 G, KJ/KG       -410442.8-411970.9-413502.5-415037.4-416575.8-418117.5-419662.4-421210.6
 S, KJ/(KG)(K)   152.6330 152.9825 153.3272 153.6672 154.0023 154.3327 154.6583 154.9790

 M, (1/n)           1.177    1.173    1.170    1.166    1.163    1.159    1.156    1.152
 (dLV/dLP)t      -1.10245 -1.10126 -1.10006 -1.09885 -1.09763 -1.09640 -1.09515 -1.09390
 (dLV/dLT)p        2.3598   2.3409   2.3220   2.3029   2.2838   2.2647   2.2455   2.2263
 Cp, KJ/(KG)(K)  147.7917 146.1426 144.4753 142.7916 141.0934 139.3827 137.6613 135.9311
 GAMMAs            1.1957   1.1968   1.1979   1.1990   1.2001   1.2013   1.2025   1.2037
 SON VEL,M/SEC     5955.5   5974.9   5994.2   6013.4   6032.6   6051.7   6070.7   6089.7

 TRANSPORT PROPERTIES (GASES ONLY)
   CONDUCTIVITY IN UNITS OF MILLIWATTS/(CM)(K)

 VISC,MILLIPOISE  0.59324  0.59240  0.59157  0.59074  0.58991  0.58909  0.58828  0.58748

  WITH EQUILIBRIUM REACTIONS

 Cp, KJ/(KG)(K)  147.7916 146.1426 144.4753 142.7915 141.0934 139.3827 137.6613 135.9311
 CONDUCTIVITY    144.5914 142.7794 140.9594 139.1330 137.3020 135.4681 133.6329 131.7979
 PRANDTL NUMBER    0.6064   0.6064   0.6063   0.6063   0.6062   0.6061   0.6060   0.6059

  WITH FROZEN REACTIONS

 Cp, KJ/(KG)(K)   20.3196  20.3279  20.3360  20.3439  20.3517  20.3593  20.3668  20.3740
 CONDUCTIVITY     16.7802  16.7736  16.7672  16.7610  16.7550  16.7493  16.7438  16.7386
 PRANDTL NUMBER    0.7184   0.7179   0.7175   0.7170   0.7165   0.7161   0.7156   0.7151

 MOLE FRACTIONS

 *H               0.83203  0.83578  0.83945  0.84305  0.84658  0.85003  0.85342  0.85674
 *H2              0.16797  0.16422  0.16055  0.15695  0.15342  0.14997  0.14658  0.14326

  * THERMODYNAMIC PROPERTIES FITTED TO 20000.K

 NOTE. WEIGHT FRACTION OF FUEL IN TOTAL FUELS AND OF OXIDANT IN TOTAL OXIDANTS









               THERMODYNAMIC EQUILIBRIUM PROPERTIES AT ASSIGNED

                           TEMPERATURE AND PRESSURE

 CASE =                

             REACTANT                    WT FRACTION      ENERGY      TEMP
                                          (SEE NOTE)     KJ/KG-MOL      K  
             H2                           1.0000000         0.000      0.000

 O/F=    0.00000  %FUEL=100.000000  R,EQ.RATIO= 0.000000  PHI,EQ.RATIO= 0.000000

 THERMODYNAMIC PROPERTIES

 P, BAR            1.2000   1.2000   1.2000   1.2000   1.2000   1.2000   1.2000   1.3200
 T, K             4280.00  4290.00  4300.00  4310.00  4320.00  4330.00  4340.00  4200.00
 RHO, KG/CU M    3.8748-3 3.8549-3 3.8354-3 3.8162-3 3.7974-3 3.7788-3 3.7605-3 4.4943-3
 H, KJ/KG        241900.4 243233.6 244549.4 245847.7 247128.5 248391.9 249637.7 226725.1
 U, KJ/KG        210930.7 212104.7 213262.2 214403.1 215527.6 216635.6 217727.1 197354.8
 G, KJ/KG       -422762.0-424316.5-425874.1-427434.7-428998.4-430564.9-432134.4-407629.5
 S, KJ/(KG)(K)   155.2949 155.6061 155.9124 156.2140 156.5108 156.8030 157.0904 151.0368

 M, (1/n)           1.149    1.146    1.143    1.140    1.137    1.134    1.131    1.189
 (dLV/dLP)t      -1.09265 -1.09139 -1.09012 -1.08885 -1.08759 -1.08632 -1.08505 -1.10590
 (dLV/dLT)p        2.2072   2.1880   2.1689   2.1498   2.1308   2.1119   2.0931   2.4056
 Cp, KJ/(KG)(K)  134.1939 132.4513 130.7051 128.9570 127.2084 125.4611 123.7164 150.7649
 GAMMAs            1.2049   1.2061   1.2074   1.2086   1.2099   1.2112   1.2126   1.1940
 SON VEL,M/SEC     6108.6   6127.4   6146.1   6164.8   6183.4   6202.0   6220.5   5922.0

 TRANSPORT PROPERTIES (GASES ONLY)
   CONDUCTIVITY IN UNITS OF MILLIWATTS/(CM)(K)

 VISC,MILLIPOISE  0.58668  0.58589  0.58512  0.58435  0.58360  0.58285  0.58213  0.59932

  WITH EQUILIBRIUM REACTIONS

 Cp, KJ/(KG)(K)  134.1939 132.4513 130.7051 128.9570 127.2084 125.4611 123.7163 150.7649
 CONDUCTIVITY    129.9647 128.1349 126.3096 124.4905 122.6786 120.8754 119.0819 149.0219
 PRANDTL NUMBER    0.6058   0.6056   0.6055   0.6053   0.6051   0.6050   0.6048   0.6063

  WITH FROZEN REACTIONS

 Cp, KJ/(KG)(K)   20.3811  20.3881  20.3948  20.4015  20.4079  20.4142  20.4204  20.3017
 CONDUCTIVITY     16.7337  16.7290  16.7247  16.7207  16.7170  16.7137  16.7107  16.9061
 PRANDTL NUMBER    0.7146   0.7140   0.7135   0.7130   0.7124   0.7119   0.7114   0.7197

 MOLE FRACTIONS

 *H               0.85999  0.86317  0.86629  0.86933  0.87232  0.87524  0.87810  0.82038
 *H2              0.14001  0.13683  0.13371  0.13067  0.12768  0.12476  0.12190  0.17962

  * THERMODYNAMIC PROPERTIES FITTED TO 20000.K

 NOTE. WEIGHT FRACTION OF FUEL IN TOTAL FUELS AND OF OXIDANT IN TOTAL OXIDANTS









               THERMODYNAMIC EQUILIBRIUM PROPERTIES AT ASSIGNED

                           TEMPERATURE AND PRESSURE

 CASE =                

             REACTANT                    WT FRACTION      ENERGY      TEMP
                                          (SEE NOTE)     KJ/KG-MOL      K  
             H2                           1.0000000         0.000      0.000

 O/F=    0.00000  %FUEL=100.000000  R,EQ.RATIO= 0.000000  PHI,EQ.RATIO= 0.000000

 THERMODYNAMIC PROPERTIES

 P, BAR            1.3200   1.3200   1.3200   1.3200   1.3200   1.3200   1.3200   1.3200
 T, K             4210.00  4220.00  4230.00  4240.00  4250.00  4260.00  4270.00  4280.00
 RHO, KG/CU M    4.4688-3 4.4437-3 4.4189-3 4.3945-3 4.3705-3 4.3469-3 4.3237-3 4.3008-3
 H, KJ/KG        228225.1 229709.5 231178.1 232630.8 234067.3 235487.5 236891.3 238278.5
 U, KJ/KG        198686.9 200004.2 201306.4 202593.5 203865.2 205121.4 206361.9 207586.7
 G, KJ/KG       -409141.7-410657.4-412176.6-413699.2-415225.3-416754.7-418287.4-419823.4
 S, KJ/(KG)(K)   151.3935 151.7457 152.0933 152.4363 152.7747 153.1085 153.4376 153.7621

 M, (1/n)           1.185    1.181    1.177    1.174    1.170    1.166    1.163    1.159
 (dLV/dLP)t      -1.10478 -1.10364 -1.10249 -1.10132 -1.10014 -1.09895 -1.09774 -1.09653
 (dLV/dLT)p        2.3875   2.3693   2.3509   2.3324   2.3139   2.2952   2.2765   2.2577
 Cp, KJ/(KG)(K)  149.2225 147.6568 146.0699 144.4637 142.8399 141.2006 139.5474 137.8822
 GAMMAs            1.1951   1.1961   1.1972   1.1983   1.1994   1.2005   1.2016   1.2028
 SON VEL,M/SEC     5941.4   5960.8   5980.1   5999.4   6018.6   6037.7   6056.7   6075.7

 TRANSPORT PROPERTIES (GASES ONLY)
   CONDUCTIVITY IN UNITS OF MILLIWATTS/(CM)(K)

 VISC,MILLIPOISE  0.59850  0.59767  0.59685  0.59602  0.59520  0.59439  0.59358  0.59277

  WITH EQUILIBRIUM REACTIONS

 Cp, KJ/(KG)(K)  149.2225 147.6568 146.0699 144.4637 142.8399 141.2006 139.5474 137.8822
 CONDUCTIVITY    147.2813 145.5277 143.7629 141.9887 140.2066 138.4185 136.6260 134.8306
 PRANDTL NUMBER    0.6064   0.6064   0.6064   0.6064   0.6064   0.6063   0.6063   0.6062

  WITH FROZEN REACTIONS

 Cp, KJ/(KG)(K)   20.3103  20.3187  20.3270  20.3351  20.3430  20.3507  20.3583  20.3657
 CONDUCTIVITY     16.8992  16.8925  16.8859  16.8794  16.8732  16.8671  16.8613  16.8557
 PRANDTL NUMBER    0.7193   0.7189   0.7185   0.7180   0.7176   0.7171   0.7167   0.7162

 MOLE FRACTIONS

 *H               0.82429  0.82813  0.83189  0.83559  0.83921  0.84277  0.84625  0.84966
 *H2              0.17571  0.17187  0.16811  0.16441  0.16079  0.15723  0.15375  0.15034

  * THERMODYNAMIC PROPERTIES FITTED TO 20000.K

 NOTE. WEIGHT FRACTION OF FUEL IN TOTAL FUELS AND OF OXIDANT IN TOTAL OXIDANTS









               THERMODYNAMIC EQUILIBRIUM PROPERTIES AT ASSIGNED

                           TEMPERATURE AND PRESSURE

 CASE =                

             REACTANT                    WT FRACTION      ENERGY      TEMP
                                          (SEE NOTE)     KJ/KG-MOL      K  
             H2                           1.0000000         0.000      0.000

 O/F=    0.00000  %FUEL=100.000000  R,EQ.RATIO= 0.000000  PHI,EQ.RATIO= 0.000000

 THERMODYNAMIC PROPERTIES

 P, BAR            1.3200   1.3200   1.3200   1.3200   1.3200   1.3200   1.4800   1.4800
 T, K             4290.00  4300.00  4310.00  4320.00  4330.00  4340.00  4200.00  4210.00
 RHO, KG/CU M    4.2783-3 4.2562-3 4.2344-3 4.2129-3 4.1918-3 4.1710-3 5.1017-3 5.0721-3
 H, KJ/KG        239648.9 241002.6 242339.3 243659.2 244962.0 246247.9 221944.4 223475.7
 U, KJ/KG        208795.7 209988.8 211165.9 212327.0 213472.0 214601.0 192934.3 194296.2
 G, KJ/KG       -421362.7-422905.1-424450.6-425999.2-427550.8-429105.5-404289.8-405782.6
 S, KJ/(KG)(K)   154.0820 154.3971 154.7076 155.0135 155.3148 155.6114 149.1034 149.4675

 M, (1/n)           1.156    1.153    1.150    1.146    1.143    1.140    1.204    1.200
 (dLV/dLP)t      -1.09531 -1.09408 -1.09284 -1.09160 -1.09035 -1.08910 -1.10975 -1.10872
 (dLV/dLT)p        2.2390   2.2202   2.2014   2.1826   2.1639   2.1452   2.4567   2.4397
 Cp, KJ/(KG)(K)  136.2067 134.5228 132.8320 131.1361 129.4366 127.7351 153.8253 152.4245
 GAMMAs            1.2039   1.2051   1.2063   1.2076   1.2088   1.2101   1.1923   1.1932
 SON VEL,M/SEC     6094.7   6113.5   6132.3   6151.0   6169.7   6188.3   5881.1   5900.6

 TRANSPORT PROPERTIES (GASES ONLY)
   CONDUCTIVITY IN UNITS OF MILLIWATTS/(CM)(K)

 VISC,MILLIPOISE  0.59197  0.59118  0.59039  0.58962  0.58885  0.58810  0.60659  0.60579

  WITH EQUILIBRIUM REACTIONS

 Cp, KJ/(KG)(K)  136.2067 134.5228 132.8320 131.1361 129.4366 127.7351 153.8253 152.4245
 CONDUCTIVITY    133.0340 131.2375 129.4427 127.6510 125.8637 124.0821 153.9754 152.3375
 PRANDTL NUMBER    0.6061   0.6060   0.6059   0.6057   0.6056   0.6054   0.6060   0.6061

  WITH FROZEN REACTIONS

 Cp, KJ/(KG)(K)   20.3729  20.3800  20.3869  20.3936  20.4002  20.4067  20.2798  20.2887
 CONDUCTIVITY     16.8504  16.8453  16.8405  16.8360  16.8318  16.8279  17.0592  17.0522
 PRANDTL NUMBER    0.7157   0.7152   0.7147   0.7142   0.7137   0.7132   0.7211   0.7208

 MOLE FRACTIONS

 *H               0.85301  0.85629  0.85950  0.86265  0.86573  0.86875  0.80573  0.80984
 *H2              0.14699  0.14371  0.14050  0.13735  0.13427  0.13125  0.19427  0.19016

  * THERMODYNAMIC PROPERTIES FITTED TO 20000.K

 NOTE. WEIGHT FRACTION OF FUEL IN TOTAL FUELS AND OF OXIDANT IN TOTAL OXIDANTS









               THERMODYNAMIC EQUILIBRIUM PROPERTIES AT ASSIGNED

                           TEMPERATURE AND PRESSURE

 CASE =                

             REACTANT                    WT FRACTION      ENERGY      TEMP
                                          (SEE NOTE)     KJ/KG-MOL      K  
             H2                           1.0000000         0.000      0.000

 O/F=    0.00000  %FUEL=100.000000  R,EQ.RATIO= 0.000000  PHI,EQ.RATIO= 0.000000

 THERMODYNAMIC PROPERTIES

 P, BAR            1.4800   1.4800   1.4800   1.4800   1.4800   1.4800   1.4800   1.4800
 T, K             4220.00  4230.00  4240.00  4250.00  4260.00  4270.00  4280.00  4290.00
 RHO, KG/CU M    5.0429-3 5.0142-3 4.9859-3 4.9580-3 4.9306-3 4.9036-3 4.8770-3 4.8508-3
 H, KJ/KG        224992.8 226495.5 227983.5 229456.6 230914.6 232357.2 233784.2 235195.6
 U, KJ/KG        195644.5 196979.1 198299.6 199605.9 200897.7 202175.0 203437.5 204685.0
 G, KJ/KG       -407279.1-408779.2-410282.8-411789.8-413300.4-414814.3-416331.6-417852.2
 S, KJ/(KG)(K)   149.8275 150.1831 150.5345 150.8815 151.2242 151.5624 151.8962 152.2256

 M, (1/n)           1.196    1.192    1.188    1.184    1.180    1.176    1.173    1.169
 (dLV/dLP)t      -1.10767 -1.10660 -1.10552 -1.10441 -1.10329 -1.10215 -1.10100 -1.09984
 (dLV/dLT)p        2.4225   2.4051   2.3876   2.3699   2.3520   2.3341   2.3160   2.2979
 Cp, KJ/(KG)(K)  150.9954 149.5397 148.0592 146.5556 145.0309 143.4867 141.9248 140.3470
 GAMMAs            1.1942   1.1952   1.1962   1.1972   1.1983   1.1994   1.2004   1.2015
 SON VEL,M/SEC     5920.1   5939.5   5958.9   5978.2   5997.4   6016.6   6035.7   6054.7

 TRANSPORT PROPERTIES (GASES ONLY)
   CONDUCTIVITY IN UNITS OF MILLIWATTS/(CM)(K)

 VISC,MILLIPOISE  0.60499  0.60419  0.60339  0.60258  0.60177  0.60097  0.60016  0.59936

  WITH EQUILIBRIUM REACTIONS

 Cp, KJ/(KG)(K)  150.9954 149.5397 148.0592 146.5556 145.0309 143.4867 141.9248 140.3470
 CONDUCTIVITY    150.6809 149.0073 147.3186 145.6164 143.9025 142.1785 140.4461 138.7069
 PRANDTL NUMBER    0.6063   0.6064   0.6064   0.6065   0.6065   0.6065   0.6065   0.6064

  WITH FROZEN REACTIONS

 Cp, KJ/(KG)(K)   20.2975  20.3061  20.3145  20.3227  20.3308  20.3387  20.3464  20.3540
 CONDUCTIVITY     17.0453  17.0385  17.0318  17.0252  17.0187  17.0124  17.0062  17.0002
 PRANDTL NUMBER    0.7204   0.7201   0.7197   0.7193   0.7189   0.7185   0.7180   0.7176

 MOLE FRACTIONS

 *H               0.81387  0.81783  0.82173  0.82555  0.82930  0.83298  0.83659  0.84013
 *H2              0.18613  0.18217  0.17827  0.17445  0.17070  0.16702  0.16341  0.15987

  * THERMODYNAMIC PROPERTIES FITTED TO 20000.K

 NOTE. WEIGHT FRACTION OF FUEL IN TOTAL FUELS AND OF OXIDANT IN TOTAL OXIDANTS









               THERMODYNAMIC EQUILIBRIUM PROPERTIES AT ASSIGNED

                           TEMPERATURE AND PRESSURE

 CASE =                

             REACTANT                    WT FRACTION      ENERGY      TEMP
                                          (SEE NOTE)     KJ/KG-MOL      K  
             H2                           1.0000000         0.000      0.000

 O/F=    0.00000  %FUEL=100.000000  R,EQ.RATIO= 0.000000  PHI,EQ.RATIO= 0.000000

 THERMODYNAMIC PROPERTIES

 P, BAR            1.4800   1.4800   1.4800   1.4800   1.4800   1.6500   1.6500   1.6500
 T, K             4300.00  4310.00  4320.00  4330.00  4340.00  4200.00  4210.00  4220.00
 RHO, KG/CU M    4.8250-3 4.7996-3 4.7746-3 4.7500-3 4.7258-3 5.7570-3 5.7230-3 5.6894-3
 H, KJ/KG        236591.1 237970.7 239334.1 240681.3 242012.3 217307.0 218862.6 220405.5
 U, KJ/KG        205917.5 207134.8 208336.9 209523.6 210694.9 188646.3 190031.5 191404.5
 G, KJ/KG       -419376.1-420903.2-422433.5-423966.9-425503.5-401154.4-402628.7-404106.8
 S, KJ/(KG)(K)   152.5505 152.8710 153.1869 153.4984 153.8055 147.2527 147.6227 147.9887

 M, (1/n)           1.166    1.162    1.159    1.155    1.152    1.218    1.214    1.210
 (dLV/dLP)t      -1.09866 -1.09747 -1.09628 -1.09508 -1.09387 -1.11307 -1.11214 -1.11119
 (dLV/dLT)p        2.2796   2.2614   2.2431   2.2247   2.2064   2.5007   2.4850   2.4689
 Cp, KJ/(KG)(K)  138.7550 137.1504 135.5351 133.9105 132.2784 156.1862 154.9316 153.6442
 GAMMAs            1.2027   1.2038   1.2049   1.2061   1.2073   1.1907   1.1916   1.1926
 SON VEL,M/SEC     6073.7   6092.6   6111.4   6130.2   6148.9   5841.8   5861.4   5880.9

 TRANSPORT PROPERTIES (GASES ONLY)
   CONDUCTIVITY IN UNITS OF MILLIWATTS/(CM)(K)

 VISC,MILLIPOISE  0.59856  0.59777  0.59698  0.59620  0.59542  0.61341  0.61266  0.61190

  WITH EQUILIBRIUM REACTIONS

 Cp, KJ/(KG)(K)  138.7550 137.1504 135.5351 133.9105 132.2784 156.1862 154.9316 153.6442
 CONDUCTIVITY    136.9624 135.2141 133.4637 131.7125 129.9618 158.2633 156.7385 155.1901
 PRANDTL NUMBER    0.6064   0.6063   0.6062   0.6061   0.6060   0.6054   0.6056   0.6058

  WITH FROZEN REACTIONS

 Cp, KJ/(KG)(K)   20.3614  20.3687  20.3758  20.3827  20.3895  20.2586  20.2678  20.2768
 CONDUCTIVITY     16.9945  16.9889  16.9836  16.9785  16.9737  17.2059  17.1991  17.1924
 PRANDTL NUMBER    0.7171   0.7167   0.7162   0.7157   0.7152   0.7222   0.7220   0.7217

 MOLE FRACTIONS

 *H               0.84361  0.84701  0.85036  0.85363  0.85684  0.79117  0.79546  0.79967
 *H2              0.15639  0.15299  0.14964  0.14637  0.14316  0.20883  0.20454  0.20033

  * THERMODYNAMIC PROPERTIES FITTED TO 20000.K

 NOTE. WEIGHT FRACTION OF FUEL IN TOTAL FUELS AND OF OXIDANT IN TOTAL OXIDANTS









               THERMODYNAMIC EQUILIBRIUM PROPERTIES AT ASSIGNED

                           TEMPERATURE AND PRESSURE

 CASE =                

             REACTANT                    WT FRACTION      ENERGY      TEMP
                                          (SEE NOTE)     KJ/KG-MOL      K  
             H2                           1.0000000         0.000      0.000

 O/F=    0.00000  %FUEL=100.000000  R,EQ.RATIO= 0.000000  PHI,EQ.RATIO= 0.000000

 THERMODYNAMIC PROPERTIES

 P, BAR            1.6500   1.6500   1.6500   1.6500   1.6500   1.6500   1.6500   1.6500
 T, K             4230.00  4240.00  4250.00  4260.00  4270.00  4280.00  4290.00  4300.00
 RHO, KG/CU M    5.6564-3 5.6238-3 5.5918-3 5.5602-3 5.5291-3 5.4984-3 5.4682-3 5.4385-3
 H, KJ/KG        221935.4 223452.0 224954.9 226443.9 227918.8 229379.4 230825.3 232256.5
 U, KJ/KG        192765.0 194112.6 195447.3 196768.7 198076.5 199370.7 200650.9 201917.1
 G, KJ/KG       -405588.5-407073.8-408562.7-410055.0-411550.9-413050.2-414552.9-416058.9
 S, KJ/(KG)(K)   148.3508 148.7089 149.0630 149.4129 149.7587 150.1004 150.4378 150.7710

 M, (1/n)           1.206    1.202    1.198    1.194    1.190    1.186    1.182    1.178
 (dLV/dLP)t      -1.11021 -1.10921 -1.10819 -1.10715 -1.10609 -1.10501 -1.10392 -1.10281
 (dLV/dLT)p        2.4527   2.4362   2.4195   2.4026   2.3855   2.3683   2.3509   2.3334
 Cp, KJ/(KG)(K)  152.3259 150.9782 149.6028 148.2014 146.7757 145.3273 143.8580 142.3694
 GAMMAs            1.1935   1.1945   1.1954   1.1964   1.1974   1.1984   1.1995   1.2005
 SON VEL,M/SEC     5900.4   5919.8   5939.2   5958.5   5977.8   5997.0   6016.1   6035.2

 TRANSPORT PROPERTIES (GASES ONLY)
   CONDUCTIVITY IN UNITS OF MILLIWATTS/(CM)(K)

 VISC,MILLIPOISE  0.61113  0.61036  0.60958  0.60879  0.60801  0.60722  0.60642  0.60563

  WITH EQUILIBRIUM REACTIONS

 Cp, KJ/(KG)(K)  152.3259 150.9782 149.6028 148.2014 146.7757 145.3273 143.8580 142.3694
 CONDUCTIVITY    153.6196 152.0287 150.4193 148.7929 147.1512 145.4959 143.8286 142.1509
 PRANDTL NUMBER    0.6060   0.6061   0.6063   0.6064   0.6065   0.6065   0.6065   0.6066

  WITH FROZEN REACTIONS

 Cp, KJ/(KG)(K)   20.2857  20.2944  20.3030  20.3114  20.3196  20.3276  20.3355  20.3433
 CONDUCTIVITY     17.1856  17.1788  17.1721  17.1655  17.1589  17.1524  17.1461  17.1399
 PRANDTL NUMBER    0.7214   0.7211   0.7207   0.7204   0.7200   0.7196   0.7192   0.7188

 MOLE FRACTIONS

 *H               0.80381  0.80789  0.81189  0.81582  0.81969  0.82348  0.82721  0.83087
 *H2              0.19619  0.19211  0.18811  0.18418  0.18031  0.17652  0.17279  0.16913

  * THERMODYNAMIC PROPERTIES FITTED TO 20000.K

 NOTE. WEIGHT FRACTION OF FUEL IN TOTAL FUELS AND OF OXIDANT IN TOTAL OXIDANTS









               THERMODYNAMIC EQUILIBRIUM PROPERTIES AT ASSIGNED

                           TEMPERATURE AND PRESSURE

 CASE =                

             REACTANT                    WT FRACTION      ENERGY      TEMP
                                          (SEE NOTE)     KJ/KG-MOL      K  
             H2                           1.0000000         0.000      0.000

 O/F=    0.00000  %FUEL=100.000000  R,EQ.RATIO= 0.000000  PHI,EQ.RATIO= 0.000000

 THERMODYNAMIC PROPERTIES

 P, BAR            1.6500   1.6500   1.6500   1.6500   1.8000   1.8000   1.8000   1.8000
 T, K             4310.00  4320.00  4330.00  4340.00  4200.00  4210.00  4220.00  4230.00
 RHO, KG/CU M    5.4092-3 5.3803-3 5.3519-3 5.3240-3 6.3431-3 6.3052-3 6.2677-3 6.2308-3
 H, KJ/KG        233672.7 235073.7 236459.4 237829.7 213543.0 215114.1 216673.7 218221.5
 U, KJ/KG        203169.0 204406.5 205629.4 206837.8 185165.8 186566.0 187955.1 189332.8
 G, KJ/KG       -417568.3-419080.9-420596.8-422115.8-398672.9-400132.4-401595.6-403062.6
 S, KJ/(KG)(K)   151.1000 151.4247 151.7451 152.0612 145.7657 146.1393 146.5093 146.8757

 M, (1/n)           1.175    1.171    1.168    1.164    1.231    1.226    1.222    1.217
 (dLV/dLP)t      -1.10168 -1.10055 -1.09940 -1.09824 -1.11546 -1.11462 -1.11375 -1.11286
 (dLV/dLT)p        2.3158   2.2982   2.2804   2.2626   2.5325   2.5178   2.5028   2.4876
 Cp, KJ/(KG)(K)  140.8632 139.3410 137.8045 136.2553 157.6750 156.5432 155.3759 154.1746
 GAMMAs            1.2016   1.2027   1.2038   1.2049   1.1896   1.1905   1.1913   1.1922
 SON VEL,M/SEC     6054.2   6073.1   6092.0   6110.9   5810.1   5829.7   5849.2   5868.8

 TRANSPORT PROPERTIES (GASES ONLY)
   CONDUCTIVITY IN UNITS OF MILLIWATTS/(CM)(K)

 VISC,MILLIPOISE  0.60484  0.60406  0.60327  0.60249  0.61879  0.61808  0.61736  0.61663

  WITH EQUILIBRIUM REACTIONS

 Cp, KJ/(KG)(K)  140.8632 139.3410 137.8045 136.2552 157.6750 156.5432 155.3759 154.1746
 CONDUCTIVITY    140.4643 138.7704 137.0707 135.3667 161.3690 159.9446 158.4927 157.0150
 PRANDTL NUMBER    0.6066   0.6065   0.6065   0.6064   0.6046   0.6049   0.6052   0.6055

  WITH FROZEN REACTIONS

 Cp, KJ/(KG)(K)   20.3508  20.3582  20.3655  20.3726  20.2413  20.2508  20.2600  20.2691
 CONDUCTIVITY     17.1338  17.1279  17.1222  17.1167  17.3234  17.3171  17.3106  17.3041
 PRANDTL NUMBER    0.7184   0.7180   0.7175   0.7171   0.7230   0.7228   0.7225   0.7223

 MOLE FRACTIONS

 *H               0.83446  0.83799  0.84144  0.84484  0.77909  0.78351  0.78786  0.79215
 *H2              0.16554  0.16201  0.15856  0.15516  0.22091  0.21649  0.21214  0.20785

  * THERMODYNAMIC PROPERTIES FITTED TO 20000.K

 NOTE. WEIGHT FRACTION OF FUEL IN TOTAL FUELS AND OF OXIDANT IN TOTAL OXIDANTS









               THERMODYNAMIC EQUILIBRIUM PROPERTIES AT ASSIGNED

                           TEMPERATURE AND PRESSURE

 CASE =                

             REACTANT                    WT FRACTION      ENERGY      TEMP
                                          (SEE NOTE)     KJ/KG-MOL      K  
             H2                           1.0000000         0.000      0.000

 O/F=    0.00000  %FUEL=100.000000  R,EQ.RATIO= 0.000000  PHI,EQ.RATIO= 0.000000

 THERMODYNAMIC PROPERTIES

 P, BAR            1.8000   1.8000   1.8000   1.8000   1.8000   1.8000   1.8000   1.8000
 T, K             4240.00  4250.00  4260.00  4270.00  4280.00  4290.00  4300.00  4310.00
 RHO, KG/CU M    6.1944-3 6.1586-3 6.1232-3 6.0884-3 6.0541-3 6.0203-3 5.9870-3 5.9542-3
 H, KJ/KG        219757.1 221280.2 222790.5 224287.7 225771.6 227241.9 228698.3 230140.7
 U, KJ/KG        190698.7 192052.7 193394.3 194723.5 196039.8 197343.1 198633.2 199909.9
 G, KJ/KG       -404533.1-406007.3-407485.1-408966.3-410451.1-411939.3-413431.0-414926.0
 S, KJ/(KG)(K)   147.2383 147.5971 147.9520 148.3031 148.6502 148.9933 149.3324 149.6674

 M, (1/n)           1.213    1.209    1.205    1.201    1.197    1.193    1.189    1.185
 (dLV/dLP)t      -1.11194 -1.11099 -1.11003 -1.10904 -1.10803 -1.10700 -1.10595 -1.10488
 (dLV/dLT)p        2.4720   2.4562   2.4402   2.4240   2.4075   2.3909   2.3741   2.3572
 Cp, KJ/(KG)(K)  152.9408 151.6760 150.3819 149.0600 147.7118 146.3390 144.9432 143.5260
 GAMMAs            1.1932   1.1941   1.1950   1.1960   1.1970   1.1980   1.1990   1.2000
 SON VEL,M/SEC     5888.2   5907.7   5927.0   5946.3   5965.6   5984.8   6003.9   6023.0

 TRANSPORT PROPERTIES (GASES ONLY)
   CONDUCTIVITY IN UNITS OF MILLIWATTS/(CM)(K)

 VISC,MILLIPOISE  0.61589  0.61514  0.61438  0.61362  0.61285  0.61208  0.61130  0.61053

  WITH EQUILIBRIUM REACTIONS

 Cp, KJ/(KG)(K)  152.9408 151.6760 150.3819 149.0600 147.7118 146.3390 144.9432 143.5260
 CONDUCTIVITY    155.5131 153.9888 152.4435 150.8791 149.2970 147.6988 146.0863 144.4609
 PRANDTL NUMBER    0.6057   0.6059   0.6061   0.6062   0.6063   0.6064   0.6065   0.6066

  WITH FROZEN REACTIONS

 Cp, KJ/(KG)(K)   20.2781  20.2868  20.2955  20.3039  20.3122  20.3203  20.3283  20.3361
 CONDUCTIVITY     17.2975  17.2909  17.2843  17.2777  17.2712  17.2647  17.2583  17.2520
 PRANDTL NUMBER    0.7220   0.7217   0.7214   0.7211   0.7208   0.7204   0.7200   0.7197

 MOLE FRACTIONS

 *H               0.79636  0.80050  0.80458  0.80859  0.81253  0.81640  0.82020  0.82394
 *H2              0.20364  0.19950  0.19542  0.19141  0.18747  0.18360  0.17980  0.17606

  * THERMODYNAMIC PROPERTIES FITTED TO 20000.K

 NOTE. WEIGHT FRACTION OF FUEL IN TOTAL FUELS AND OF OXIDANT IN TOTAL OXIDANTS









               THERMODYNAMIC EQUILIBRIUM PROPERTIES AT ASSIGNED

                           TEMPERATURE AND PRESSURE

 CASE =                

             REACTANT                    WT FRACTION      ENERGY      TEMP
                                          (SEE NOTE)     KJ/KG-MOL      K  
             H2                           1.0000000         0.000      0.000

 O/F=    0.00000  %FUEL=100.000000  R,EQ.RATIO= 0.000000  PHI,EQ.RATIO= 0.000000

 THERMODYNAMIC PROPERTIES

 P, BAR            1.8000   1.8000   1.8000   2.0000   2.0000   2.0000   2.0000   2.0000
 T, K             4320.00  4330.00  4340.00  4200.00  4210.00  4220.00  4230.00  4240.00
 RHO, KG/CU M    5.9219-3 5.8900-3 5.8587-3 7.1352-3 7.0919-3 7.0492-3 7.0070-3 6.9655-3
 H, KJ/KG        231568.8 232982.4 234381.4 208937.2 210522.3 212097.4 213662.1 215216.1
 U, KJ/KG        201173.0 202422.3 203657.7 180907.1 182321.0 183725.2 185119.3 186503.0
 G, KJ/KG       -416424.3-417925.9-419430.8-395701.3-397142.8-398588.0-400037.0-401489.7
 S, KJ/(KG)(K)   149.9984 150.3252 150.6480 143.9616 144.3385 144.7122 145.0825 145.4495

 M, (1/n)           1.182    1.178    1.175    1.246    1.241    1.237    1.232    1.228
 (dLV/dLP)t      -1.10380 -1.10270 -1.10159 -1.11803 -1.11730 -1.11654 -1.11575 -1.11494
 (dLV/dLT)p        2.3402   2.3230   2.3057   2.5666   2.5533   2.5396   2.5257   2.5114
 Cp, KJ/(KG)(K)  142.0890 140.6337 139.1618 158.9906 158.0123 156.9958 155.9423 154.8532
 GAMMAs            1.2010   1.2021   1.2032   1.1883   1.1892   1.1900   1.1909   1.1917
 SON VEL,M/SEC     6042.0   6061.0   6079.9   5771.4   5791.0   5810.6   5830.1   5849.6

 TRANSPORT PROPERTIES (GASES ONLY)
   CONDUCTIVITY IN UNITS OF MILLIWATTS/(CM)(K)

 VISC,MILLIPOISE  0.60975  0.60897  0.60819  0.62515  0.62451  0.62385  0.62317  0.62249

  WITH EQUILIBRIUM REACTIONS

 Cp, KJ/(KG)(K)  142.0890 140.6337 139.1618 158.9906 158.0123 156.9958 155.9423 154.8532
 CONDUCTIVITY    142.8242 141.1777 139.5228 164.7123 163.4191 162.0945 160.7400 159.3571
 PRANDTL NUMBER    0.6066   0.6066   0.6066   0.6034   0.6038   0.6042   0.6046   0.6049

  WITH FROZEN REACTIONS

 Cp, KJ/(KG)(K)   20.3438  20.3513  20.3587  20.2202  20.2299  20.2394  20.2488  20.2580
 CONDUCTIVITY     17.2458  17.2398  17.2339  17.4652  17.4595  17.4537  17.4477  17.4416
 PRANDTL NUMBER    0.7193   0.7189   0.7185   0.7238   0.7236   0.7234   0.7232   0.7230

 MOLE FRACTIONS

 *H               0.82761  0.83121  0.83475  0.76398  0.76856  0.77306  0.77751  0.78188
 *H2              0.17239  0.16879  0.16525  0.23602  0.23144  0.22693  0.22249  0.21812

  * THERMODYNAMIC PROPERTIES FITTED TO 20000.K

 NOTE. WEIGHT FRACTION OF FUEL IN TOTAL FUELS AND OF OXIDANT IN TOTAL OXIDANTS









               THERMODYNAMIC EQUILIBRIUM PROPERTIES AT ASSIGNED

                           TEMPERATURE AND PRESSURE

 CASE =                

             REACTANT                    WT FRACTION      ENERGY      TEMP
                                          (SEE NOTE)     KJ/KG-MOL      K  
             H2                           1.0000000         0.000      0.000

 O/F=    0.00000  %FUEL=100.000000  R,EQ.RATIO= 0.000000  PHI,EQ.RATIO= 0.000000

 THERMODYNAMIC PROPERTIES

 P, BAR            2.0000   2.0000   2.0000   2.0000   2.0000   2.0000   2.0000   2.0000
 T, K             4250.00  4260.00  4270.00  4280.00  4290.00  4300.00  4310.00  4320.00
 RHO, KG/CU M    6.9245-3 6.8841-3 6.8443-3 6.8050-3 6.7663-3 6.7282-3 6.6906-3 6.6535-3
 H, KJ/KG        216759.0 218290.6 219810.4 221318.2 222813.7 224296.5 225766.6 227223.5
 U, KJ/KG        187876.1 189238.2 190588.9 191928.2 193255.5 194570.8 195873.8 197164.3
 G, KJ/KG       -402946.0-404405.9-405869.4-407336.5-408807.1-410281.1-411758.6-413239.4
 S, KJ/(KG)(K)   145.8129 146.1729 146.5292 146.8819 147.2309 147.5762 147.9177 148.2553

 M, (1/n)           1.223    1.219    1.215    1.211    1.207    1.203    1.199    1.195
 (dLV/dLP)t      -1.11409 -1.11322 -1.11233 -1.11141 -1.11046 -1.10950 -1.10852 -1.10751
 (dLV/dLT)p        2.4969   2.4820   2.4669   2.4516   2.4360   2.4202   2.4042   2.3881
 Cp, KJ/(KG)(K)  153.7299 152.5737 151.3860 150.1684 148.9222 147.6490 146.3502 145.0274
 GAMMAs            1.1926   1.1935   1.1944   1.1954   1.1963   1.1972   1.1982   1.1992
 SON VEL,M/SEC     5869.1   5888.5   5907.9   5927.2   5946.4   5965.6   5984.8   6003.9

 TRANSPORT PROPERTIES (GASES ONLY)
   CONDUCTIVITY IN UNITS OF MILLIWATTS/(CM)(K)

 VISC,MILLIPOISE  0.62179  0.62108  0.62035  0.61962  0.61889  0.61814  0.61739  0.61663

  WITH EQUILIBRIUM REACTIONS

 Cp, KJ/(KG)(K)  153.7299 152.5737 151.3860 150.1684 148.9222 147.6490 146.3502 145.0274
 CONDUCTIVITY    157.9474 156.5125 155.0538 153.5729 152.0714 150.5509 149.0129 147.4588
 PRANDTL NUMBER    0.6052   0.6054   0.6057   0.6059   0.6061   0.6062   0.6064   0.6065

  WITH FROZEN REACTIONS

 Cp, KJ/(KG)(K)   20.2670  20.2759  20.2846  20.2932  20.3016  20.3099  20.3180  20.3259
 CONDUCTIVITY     17.4353  17.4290  17.4227  17.4163  17.4099  17.4035  17.3971  17.3908
 PRANDTL NUMBER    0.7228   0.7225   0.7223   0.7220   0.7217   0.7214   0.7210   0.7207

 MOLE FRACTIONS

 *H               0.78619  0.79043  0.79461  0.79872  0.80276  0.80673  0.81064  0.81448
 *H2              0.21381  0.20957  0.20539  0.20128  0.19724  0.19327  0.18936  0.18552

  * THERMODYNAMIC PROPERTIES FITTED TO 20000.K

 NOTE. WEIGHT FRACTION OF FUEL IN TOTAL FUELS AND OF OXIDANT IN TOTAL OXIDANTS









               THERMODYNAMIC EQUILIBRIUM PROPERTIES AT ASSIGNED

                           TEMPERATURE AND PRESSURE

 CASE =                

             REACTANT                    WT FRACTION      ENERGY      TEMP
                                          (SEE NOTE)     KJ/KG-MOL      K  
             H2                           1.0000000         0.000      0.000

 O/F=    0.00000  %FUEL=100.000000  R,EQ.RATIO= 0.000000  PHI,EQ.RATIO= 0.000000

 THERMODYNAMIC PROPERTIES

 P, BAR            2.0000   2.0000   2.2500   2.2500   2.2500   2.2500   2.2500   2.2500
 T, K             4330.00  4340.00  4200.00  4210.00  4220.00  4230.00  4240.00  4250.00
 RHO, KG/CU M    6.6170-3 6.5810-3 8.1406-3 8.0906-3 8.0412-3 7.9925-3 7.9444-3 7.8969-3
 H, KJ/KG        228667.0 230097.0 203747.1 205341.4 206927.5 208504.9 210073.2 211632.2
 U, KJ/KG        198442.0 199706.7 176108.0 177531.4 178946.6 180353.3 181751.3 183140.1
 G, KJ/KG       -414723.7-416211.2-392422.8-393844.2-395269.3-396698.2-398130.8-399567.0
 S, KJ/(KG)(K)   148.5891 148.9190 141.9452 142.3244 142.7007 143.0740 143.4443 143.8116

 M, (1/n)           1.191    1.187    1.263    1.259    1.254    1.249    1.245    1.240
 (dLV/dLP)t      -1.10649 -1.10545 -1.12044 -1.11984 -1.11921 -1.11855 -1.11786 -1.11714
 (dLV/dLT)p        2.3718   2.3553   2.5986   2.5869   2.5749   2.5626   2.5499   2.5368
 Cp, KJ/(KG)(K)  143.6821 142.3157 159.8260 159.0223 158.1783 157.2949 156.3733 155.4146
 GAMMAs            1.2002   1.2012   1.1871   1.1879   1.1887   1.1895   1.1903   1.1911
 SON VEL,M/SEC     6022.9   6041.9   5728.0   5747.6   5767.1   5786.7   5806.2   5825.6

 TRANSPORT PROPERTIES (GASES ONLY)
   CONDUCTIVITY IN UNITS OF MILLIWATTS/(CM)(K)

 VISC,MILLIPOISE  0.61588  0.61511  0.63203  0.63147  0.63090  0.63030  0.62969  0.62906

  WITH EQUILIBRIUM REACTIONS

 Cp, KJ/(KG)(K)  143.6821 142.3157 159.8260 159.0223 158.1783 157.2949 156.3733 155.4146
 CONDUCTIVITY    145.8903 144.3088 167.8769 166.7407 165.5694 164.3642 163.1266 161.8580
 PRANDTL NUMBER    0.6066   0.6066   0.6017   0.6022   0.6027   0.6032   0.6036   0.6040

  WITH FROZEN REACTIONS

 Cp, KJ/(KG)(K)   20.3337  20.3413  20.1965  20.2064  20.2161  20.2257  20.2352  20.2445
 CONDUCTIVITY     17.3846  17.3784  17.6220  17.6174  17.6125  17.6074  17.6021  17.5966
 PRANDTL NUMBER    0.7204   0.7200   0.7244   0.7243   0.7242   0.7240   0.7239   0.7237

 MOLE FRACTIONS

 *H               0.81826  0.82197  0.74649  0.75123  0.75591  0.76052  0.76506  0.76954
 *H2              0.18174  0.17803  0.25351  0.24877  0.24409  0.23948  0.23494  0.23046

  * THERMODYNAMIC PROPERTIES FITTED TO 20000.K

 NOTE. WEIGHT FRACTION OF FUEL IN TOTAL FUELS AND OF OXIDANT IN TOTAL OXIDANTS









               THERMODYNAMIC EQUILIBRIUM PROPERTIES AT ASSIGNED

                           TEMPERATURE AND PRESSURE

 CASE =                

             REACTANT                    WT FRACTION      ENERGY      TEMP
                                          (SEE NOTE)     KJ/KG-MOL      K  
             H2                           1.0000000         0.000      0.000

 O/F=    0.00000  %FUEL=100.000000  R,EQ.RATIO= 0.000000  PHI,EQ.RATIO= 0.000000

 THERMODYNAMIC PROPERTIES

 P, BAR            2.2500   2.2500   2.2500   2.2500   2.2500   2.2500   2.2500   2.2500
 T, K             4260.00  4270.00  4280.00  4290.00  4300.00  4310.00  4320.00  4330.00
 RHO, KG/CU M    7.8501-3 7.8039-3 7.7584-3 7.7134-3 7.6691-3 7.6254-3 7.5823-3 7.5399-3
 H, KJ/KG        213181.4 214720.5 216249.1 217766.9 219273.7 220769.0 222252.6 223724.3
 U, KJ/KG        184519.3 185888.8 187248.1 188597.0 189935.2 191262.5 192578.4 193882.9
 G, KJ/KG       -401007.0-402450.5-403897.7-405348.4-406802.7-408260.4-409721.6-411186.2
 S, KJ/(KG)(K)   144.1757 144.5365 144.8941 145.2483 145.5991 145.9465 146.2903 146.6306

 M, (1/n)           1.236    1.231    1.227    1.223    1.219    1.214    1.210    1.206
 (dLV/dLP)t      -1.11638 -1.11560 -1.11480 -1.11396 -1.11311 -1.11222 -1.11132 -1.11039
 (dLV/dLT)p        2.5234   2.5097   2.4958   2.4815   2.4670   2.4522   2.4372   2.4220
 Cp, KJ/(KG)(K)  154.4201 153.3909 152.3283 151.2335 150.1079 148.9529 147.7697 146.5597
 GAMMAs            1.1920   1.1928   1.1937   1.1946   1.1955   1.1964   1.1973   1.1983
 SON VEL,M/SEC     5845.0   5864.4   5883.8   5903.1   5922.3   5941.5   5960.7   5979.8

 TRANSPORT PROPERTIES (GASES ONLY)
   CONDUCTIVITY IN UNITS OF MILLIWATTS/(CM)(K)

 VISC,MILLIPOISE  0.62841  0.62775  0.62708  0.62639  0.62570  0.62499  0.62428  0.62355

  WITH EQUILIBRIUM REACTIONS

 Cp, KJ/(KG)(K)  154.4201 153.3909 152.3283 151.2335 150.1079 148.9529 147.7697 146.5597
 CONDUCTIVITY    160.5598 159.2333 157.8802 156.5017 155.0995 153.6749 152.2295 150.7646
 PRANDTL NUMBER    0.6044   0.6047   0.6050   0.6053   0.6056   0.6058   0.6060   0.6062

  WITH FROZEN REACTIONS

 Cp, KJ/(KG)(K)   20.2537  20.2627  20.2715  20.2802  20.2888  20.2972  20.3054  20.3135
 CONDUCTIVITY     17.5910  17.5852  17.5792  17.5732  17.5671  17.5610  17.5548  17.5486
 PRANDTL NUMBER    0.7235   0.7233   0.7231   0.7229   0.7226   0.7224   0.7221   0.7218

 MOLE FRACTIONS

 *H               0.77396  0.77831  0.78260  0.78682  0.79098  0.79507  0.79910  0.80306
 *H2              0.22604  0.22169  0.21740  0.21318  0.20902  0.20493  0.20090  0.19694

  * THERMODYNAMIC PROPERTIES FITTED TO 20000.K

 NOTE. WEIGHT FRACTION OF FUEL IN TOTAL FUELS AND OF OXIDANT IN TOTAL OXIDANTS









               THERMODYNAMIC EQUILIBRIUM PROPERTIES AT ASSIGNED

                           TEMPERATURE AND PRESSURE

 CASE =                

             REACTANT                    WT FRACTION      ENERGY      TEMP
                                          (SEE NOTE)     KJ/KG-MOL      K  
             H2                           1.0000000         0.000      0.000

 O/F=    0.00000  %FUEL=100.000000  R,EQ.RATIO= 0.000000  PHI,EQ.RATIO= 0.000000

 THERMODYNAMIC PROPERTIES

 P, BAR            2.2500
 T, K             4340.00
 RHO, KG/CU M    7.4980-3
 H, KJ/KG        225183.8
 U, KJ/KG        195175.7
 G, KJ/KG       -412654.2
 S, KJ/(KG)(K)   146.9673

 M, (1/n)           1.203
 (dLV/dLP)t      -1.10944
 (dLV/dLT)p        2.4066
 Cp, KJ/(KG)(K)  145.3244
 GAMMAs            1.1992
 SON VEL,M/SEC     5998.9

 TRANSPORT PROPERTIES (GASES ONLY)
   CONDUCTIVITY IN UNITS OF MILLIWATTS/(CM)(K)

 VISC,MILLIPOISE  0.62283

  WITH EQUILIBRIUM REACTIONS

 Cp, KJ/(KG)(K)  145.3244
 CONDUCTIVITY    149.2818
 PRANDTL NUMBER    0.6063

  WITH FROZEN REACTIONS

 Cp, KJ/(KG)(K)   20.3215
 CONDUCTIVITY     17.5425
 PRANDTL NUMBER    0.7215

 MOLE FRACTIONS

 *H               0.80696
 *H2              0.19304

  * THERMODYNAMIC PROPERTIES FITTED TO 20000.K

 NOTE. WEIGHT FRACTION OF FUEL IN TOTAL FUELS AND OF OXIDANT IN TOTAL OXIDANTS



  
