
 *******************************************************************************

         NASA-GLENN CHEMICAL EQUILIBRIUM PROGRAM CEA2, MAY 21, 2004
                   BY  BONNIE MCBRIDE AND SANFORD GORDON
      REFS: NASA RP-1311, PART I, 1994 AND NASA RP-1311, PART II, 1996

 *******************************************************************************



  prob tp ions
  p,bar= 0.0049,0.0054,0.006,0.0067,0.0074,0.00825,0.0091,0.01,0.011,0.012,0.0132
 ,0.0148,0.0165,0.018,0.02
  t,k= 4350,4360,4370,4380,4390,4400,4410,4420,4430,4440,4450,4460,4470,4480,4490
  
  reac
  na H2                wt%=100.0000
  
  output short
  output siunits
  output transport
  
 end





               THERMODYNAMIC EQUILIBRIUM PROPERTIES AT ASSIGNED

                           TEMPERATURE AND PRESSURE

 CASE =                

             REACTANT                    WT FRACTION      ENERGY      TEMP
                                          (SEE NOTE)     KJ/KG-MOL      K  
             H2                           1.0000000         0.000      0.000

 O/F=    0.00000  %FUEL=100.000000  R,EQ.RATIO= 0.000000  PHI,EQ.RATIO= 0.000000

 THERMODYNAMIC PROPERTIES

 P, BAR           0.00490  0.00490  0.00490  0.00490  0.00490  0.00490  0.00490  0.00490
 T, K             4350.00  4360.00  4370.00  4380.00  4390.00  4400.00  4410.00  4420.00
 RHO, KG/CU M    1.3664-5 1.3632-5 1.3601-5 1.3570-5 1.3538-5 1.3507-5 1.3477-5 1.3446-5
 H, KJ/KG        299557.9 299773.2 299987.8 300202.0 300416.1 300629.8 300843.4 301056.7
 U, KJ/KG        263697.1 263829.3 263960.7 264091.9 264222.9 264353.6 264484.2 264614.5
 G, KJ/KG       -626567.8-628695.8-630825.5-632955.8-635086.5-637217.7-639349.5-641481.7
 S, KJ/(KG)(K)   212.9025 212.9516 213.0008 213.0497 213.0985 213.1472 213.1957 213.2440

 M, (1/n)           1.009    1.009    1.009    1.009    1.008    1.008    1.008    1.008
 (dLV/dLP)t      -1.00062 -1.00061 -1.00059 -1.00057 -1.00056 -1.00054 -1.00053 -1.00051
 (dLV/dLT)p        1.0081   1.0078   1.0076   1.0074   1.0072   1.0069   1.0067   1.0065
 Cp, KJ/(KG)(K)   21.4922  21.4653  21.4393  21.4143  21.3902  21.3672  21.3451  21.3238
 GAMMAs            1.6371   1.6380   1.6388   1.6397   1.6404   1.6412   1.6419   1.6426
 SON VEL,M/SEC     7662.2   7673.1   7683.9   7694.7   7705.4   7716.0   7726.5   7736.9

 TRANSPORT PROPERTIES (GASES ONLY)
   CONDUCTIVITY IN UNITS OF MILLIWATTS/(CM)(K)

 VISC,MILLIPOISE  0.48500  0.48589  0.48678  0.48767  0.48856  0.48945  0.49034  0.49123

  WITH EQUILIBRIUM REACTIONS

 Cp, KJ/(KG)(K)   21.4922  21.4653  21.4393  21.4143  21.3902  21.3672  21.3451  21.3238
 CONDUCTIVITY     15.7475  15.7523  15.7576  15.7636  15.7704  15.7780  15.7863  15.7952
 PRANDTL NUMBER    0.6619   0.6621   0.6623   0.6625   0.6627   0.6628   0.6630   0.6632

  WITH FROZEN REACTIONS

 Cp, KJ/(KG)(K)   20.6215  20.6215  20.6216  20.6216  20.6216  20.6217  20.6217  20.6218
 CONDUCTIVITY     14.9944  15.0220  15.0498  15.0776  15.1054  15.1331  15.1609  15.1886
 PRANDTL NUMBER    0.6670   0.6670   0.6670   0.6670   0.6670   0.6670   0.6670   0.6669

 MOLE FRACTIONS

 *e-              0.00000  0.00000  0.00000  0.00000  0.00000  0.00000  0.00001  0.00001
 *H               0.99937  0.99938  0.99940  0.99942  0.99943  0.99945  0.99946  0.99948
 *H+              0.00000  0.00000  0.00000  0.00000  0.00000  0.00000  0.00001  0.00001
 *H2              0.00063  0.00061  0.00059  0.00057  0.00056  0.00054  0.00053  0.00051

  * THERMODYNAMIC PROPERTIES FITTED TO 20000.K

 NOTE. WEIGHT FRACTION OF FUEL IN TOTAL FUELS AND OF OXIDANT IN TOTAL OXIDANTS









               THERMODYNAMIC EQUILIBRIUM PROPERTIES AT ASSIGNED

                           TEMPERATURE AND PRESSURE

 CASE =                

             REACTANT                    WT FRACTION      ENERGY      TEMP
                                          (SEE NOTE)     KJ/KG-MOL      K  
             H2                           1.0000000         0.000      0.000

 O/F=    0.00000  %FUEL=100.000000  R,EQ.RATIO= 0.000000  PHI,EQ.RATIO= 0.000000

 THERMODYNAMIC PROPERTIES

 P, BAR           0.00490  0.00490  0.00490  0.00490  0.00490  0.00490  0.00490  0.00540
 T, K             4430.00  4440.00  4450.00  4460.00  4470.00  4480.00  4490.00  4350.00
 RHO, KG/CU M    1.3415-5 1.3385-5 1.3355-5 1.3325-5 1.3295-5 1.3265-5 1.3235-5 1.5059-5
 H, KJ/KG        301269.9 301482.8 301695.6 301908.1 302120.5 302332.7 302544.8 299528.9
 U, KJ/KG        264744.7 264874.7 265004.5 265134.1 265263.5 265392.8 265522.0 263670.3
 G, KJ/KG       -643614.3-645747.5-647881.1-650015.3-652149.9-654284.9-656420.5-623082.2
 S, KJ/(KG)(K)   213.2922 213.3402 213.3880 213.4357 213.4833 213.5307 213.5780 212.0945

 M, (1/n)           1.008    1.008    1.008    1.008    1.008    1.008    1.008    1.009
 (dLV/dLP)t      -1.00050 -1.00048 -1.00047 -1.00046 -1.00045 -1.00043 -1.00042 -1.00069
 (dLV/dLT)p        1.0064   1.0062   1.0060   1.0058   1.0057   1.0055   1.0053   1.0089
 Cp, KJ/(KG)(K)   21.3034  21.2839  21.2651  21.2472  21.2299  21.2134  21.1975  21.5773
 GAMMAs            1.6433   1.6439   1.6445   1.6451   1.6457   1.6462   1.6467   1.6345
 SON VEL,M/SEC     7747.3   7757.6   7767.8   7778.0   7788.1   7798.1   7808.1   7655.7

 TRANSPORT PROPERTIES (GASES ONLY)
   CONDUCTIVITY IN UNITS OF MILLIWATTS/(CM)(K)

 VISC,MILLIPOISE  0.49212  0.49300  0.49389  0.49478  0.49567  0.49656  0.49745  0.48506

  WITH EQUILIBRIUM REACTIONS

 Cp, KJ/(KG)(K)   21.3034  21.2839  21.2651  21.2472  21.2299  21.2134  21.1975  21.5773
 CONDUCTIVITY     15.8048  15.8150  15.8259  15.8373  15.8493  15.8618  15.8748  15.8250
 PRANDTL NUMBER    0.6633   0.6635   0.6636   0.6638   0.6639   0.6641   0.6642   0.6614

  WITH FROZEN REACTIONS

 Cp, KJ/(KG)(K)   20.6218  20.6218  20.6219  20.6219  20.6219  20.6220  20.6220  20.6213
 CONDUCTIVITY     15.2164  15.2441  15.2718  15.2995  15.3272  15.3549  15.3826  14.9953
 PRANDTL NUMBER    0.6669   0.6669   0.6669   0.6669   0.6669   0.6669   0.6669   0.6671

 MOLE FRACTIONS

 *e-              0.00001  0.00001  0.00001  0.00001  0.00001  0.00001  0.00001  0.00000
 *H               0.99949  0.99951  0.99952  0.99953  0.99954  0.99955  0.99957  0.99930
 *H+              0.00001  0.00001  0.00001  0.00001  0.00001  0.00001  0.00001  0.00000
 *H2              0.00050  0.00048  0.00047  0.00046  0.00044  0.00043  0.00042  0.00069

  * THERMODYNAMIC PROPERTIES FITTED TO 20000.K

 NOTE. WEIGHT FRACTION OF FUEL IN TOTAL FUELS AND OF OXIDANT IN TOTAL OXIDANTS









               THERMODYNAMIC EQUILIBRIUM PROPERTIES AT ASSIGNED

                           TEMPERATURE AND PRESSURE

 CASE =                

             REACTANT                    WT FRACTION      ENERGY      TEMP
                                          (SEE NOTE)     KJ/KG-MOL      K  
             H2                           1.0000000         0.000      0.000

 O/F=    0.00000  %FUEL=100.000000  R,EQ.RATIO= 0.000000  PHI,EQ.RATIO= 0.000000

 THERMODYNAMIC PROPERTIES

 P, BAR           0.00540  0.00540  0.00540  0.00540  0.00540  0.00540  0.00540  0.00540
 T, K             4360.00  4370.00  4380.00  4390.00  4400.00  4410.00  4420.00  4430.00
 RHO, KG/CU M    1.5024-5 1.4990-5 1.4955-5 1.4921-5 1.4887-5 1.4853-5 1.4819-5 1.4785-5
 H, KJ/KG        299744.5 299959.8 300174.9 300389.7 300604.2 300818.4 301032.5 301246.2
 U, KJ/KG        263802.8 263934.9 264066.9 264198.5 264330.0 264461.2 264592.2 264722.9
 G, KJ/KG       -625203.4-627325.1-629447.3-631570.0-633693.1-635816.8-637940.9-640065.5
 S, KJ/(KG)(K)   212.1440 212.1934 212.2425 212.2915 212.3403 212.3889 212.4374 212.4857

 M, (1/n)           1.009    1.009    1.009    1.009    1.009    1.009    1.009    1.008
 (dLV/dLP)t      -1.00067 -1.00065 -1.00063 -1.00061 -1.00060 -1.00058 -1.00056 -1.00055
 (dLV/dLT)p        1.0086   1.0084   1.0081   1.0079   1.0076   1.0074   1.0072   1.0070
 Cp, KJ/(KG)(K)   21.5473  21.5184  21.4907  21.4641  21.4385  21.4140  21.3904  21.3678
 GAMMAs            1.6354   1.6364   1.6372   1.6381   1.6389   1.6397   1.6405   1.6412
 SON VEL,M/SEC     7666.8   7677.9   7688.8   7699.7   7710.4   7721.1   7731.7   7742.3

 TRANSPORT PROPERTIES (GASES ONLY)
   CONDUCTIVITY IN UNITS OF MILLIWATTS/(CM)(K)

 VISC,MILLIPOISE  0.48595  0.48684  0.48773  0.48862  0.48950  0.49039  0.49128  0.49217

  WITH EQUILIBRIUM REACTIONS

 Cp, KJ/(KG)(K)   21.5473  21.5184  21.4907  21.4641  21.4385  21.4140  21.3904  21.3678
 CONDUCTIVITY     15.8270  15.8300  15.8338  15.8384  15.8439  15.8501  15.8571  15.8648
 PRANDTL NUMBER    0.6616   0.6618   0.6620   0.6622   0.6624   0.6625   0.6627   0.6629

  WITH FROZEN REACTIONS

 Cp, KJ/(KG)(K)   20.6214  20.6214  20.6215  20.6215  20.6216  20.6216  20.6217  20.6217
 CONDUCTIVITY     15.0231  15.0508  15.0786  15.1063  15.1340  15.1618  15.1895  15.2172
 PRANDTL NUMBER    0.6670   0.6670   0.6670   0.6670   0.6670   0.6670   0.6670   0.6670

 MOLE FRACTIONS

 *e-              0.00000  0.00000  0.00000  0.00000  0.00000  0.00000  0.00001  0.00001
 *H               0.99932  0.99934  0.99936  0.99938  0.99939  0.99941  0.99943  0.99944
 *H+              0.00000  0.00000  0.00000  0.00000  0.00000  0.00000  0.00001  0.00001
 *H2              0.00067  0.00065  0.00063  0.00061  0.00060  0.00058  0.00056  0.00055

  * THERMODYNAMIC PROPERTIES FITTED TO 20000.K

 NOTE. WEIGHT FRACTION OF FUEL IN TOTAL FUELS AND OF OXIDANT IN TOTAL OXIDANTS









               THERMODYNAMIC EQUILIBRIUM PROPERTIES AT ASSIGNED

                           TEMPERATURE AND PRESSURE

 CASE =                

             REACTANT                    WT FRACTION      ENERGY      TEMP
                                          (SEE NOTE)     KJ/KG-MOL      K  
             H2                           1.0000000         0.000      0.000

 O/F=    0.00000  %FUEL=100.000000  R,EQ.RATIO= 0.000000  PHI,EQ.RATIO= 0.000000

 THERMODYNAMIC PROPERTIES

 P, BAR           0.00540  0.00540  0.00540  0.00540  0.00540  0.00540  0.00600  0.00600
 T, K             4440.00  4450.00  4460.00  4470.00  4480.00  4490.00  4350.00  4360.00
 RHO, KG/CU M    1.4752-5 1.4718-5 1.4685-5 1.4652-5 1.4619-5 1.4586-5 1.6734-5 1.6695-5
 H, KJ/KG        301459.8 301673.2 301886.3 302099.3 302312.0 302524.6 299493.5 299710.1
 U, KJ/KG        264853.5 264983.8 265114.0 265244.0 265373.8 265503.4 263637.6 263771.0
 G, KJ/KG       -642190.6-644316.2-646442.2-648568.8-650695.8-652823.3-619304.3-621416.7
 S, KJ/(KG)(K)   212.5339 212.5819 212.6297 212.6774 212.7250 212.7724 211.2179 211.2676

 M, (1/n)           1.008    1.008    1.008    1.008    1.008    1.008    1.009    1.009
 (dLV/dLP)t      -1.00053 -1.00052 -1.00051 -1.00049 -1.00048 -1.00047 -1.00077 -1.00074
 (dLV/dLT)p        1.0068   1.0066   1.0064   1.0062   1.0060   1.0059   1.0099   1.0096
 Cp, KJ/(KG)(K)   21.3461  21.3252  21.3052  21.2860  21.2675  21.2499  21.6792  21.6457
 GAMMAs            1.6419   1.6426   1.6433   1.6439   1.6445   1.6451   1.6313   1.6324
 SON VEL,M/SEC     7752.7   7763.1   7773.4   7783.7   7793.9   7804.0   7648.0   7659.3

 TRANSPORT PROPERTIES (GASES ONLY)
   CONDUCTIVITY IN UNITS OF MILLIWATTS/(CM)(K)

 VISC,MILLIPOISE  0.49305  0.49394  0.49483  0.49572  0.49660  0.49749  0.48514  0.48603

  WITH EQUILIBRIUM REACTIONS

 Cp, KJ/(KG)(K)   21.3461  21.3252  21.3052  21.2860  21.2675  21.2499  21.6792  21.6457
 CONDUCTIVITY     15.8732  15.8823  15.8920  15.9023  15.9133  15.9247  15.9176  15.9167
 PRANDTL NUMBER    0.6631   0.6632   0.6634   0.6635   0.6637   0.6638   0.6607   0.6610

  WITH FROZEN REACTIONS

 Cp, KJ/(KG)(K)   20.6217  20.6218  20.6218  20.6219  20.6219  20.6219  20.6212  20.6212
 CONDUCTIVITY     15.2449  15.2726  15.3003  15.3280  15.3556  15.3833  14.9965  15.0243
 PRANDTL NUMBER    0.6670   0.6669   0.6669   0.6669   0.6669   0.6669   0.6671   0.6671

 MOLE FRACTIONS

 *e-              0.00001  0.00001  0.00001  0.00001  0.00001  0.00001  0.00000  0.00000
 *H               0.99946  0.99947  0.99949  0.99950  0.99951  0.99952  0.99923  0.99925
 *H+              0.00001  0.00001  0.00001  0.00001  0.00001  0.00001  0.00000  0.00000
 *H2              0.00053  0.00052  0.00050  0.00049  0.00048  0.00046  0.00077  0.00074

  * THERMODYNAMIC PROPERTIES FITTED TO 20000.K

 NOTE. WEIGHT FRACTION OF FUEL IN TOTAL FUELS AND OF OXIDANT IN TOTAL OXIDANTS









               THERMODYNAMIC EQUILIBRIUM PROPERTIES AT ASSIGNED

                           TEMPERATURE AND PRESSURE

 CASE =                

             REACTANT                    WT FRACTION      ENERGY      TEMP
                                          (SEE NOTE)     KJ/KG-MOL      K  
             H2                           1.0000000         0.000      0.000

 O/F=    0.00000  %FUEL=100.000000  R,EQ.RATIO= 0.000000  PHI,EQ.RATIO= 0.000000

 THERMODYNAMIC PROPERTIES

 P, BAR           0.00600  0.00600  0.00600  0.00600  0.00600  0.00600  0.00600  0.00600
 T, K             4370.00  4380.00  4390.00  4400.00  4410.00  4420.00  4430.00  4440.00
 RHO, KG/CU M    1.6656-5 1.6618-5 1.6580-5 1.6542-5 1.6504-5 1.6466-5 1.6429-5 1.6392-5
 H, KJ/KG        299926.4 300142.4 300358.0 300573.4 300788.5 301003.4 301217.9 301432.3
 U, KJ/KG        263904.1 264036.9 264169.4 264301.6 264433.6 264565.4 264696.8 264828.1
 G, KJ/KG       -623529.6-625643.1-627757.0-629871.4-631986.3-634101.6-636217.5-638333.9
 S, KJ/(KG)(K)   211.3172 211.3665 211.4157 211.4647 211.5136 211.5622 211.6107 211.6590

 M, (1/n)           1.009    1.009    1.009    1.009    1.009    1.009    1.009    1.009
 (dLV/dLP)t      -1.00072 -1.00070 -1.00068 -1.00066 -1.00064 -1.00063 -1.00061 -1.00059
 (dLV/dLT)p        1.0093   1.0090   1.0087   1.0085   1.0082   1.0080   1.0077   1.0075
 Cp, KJ/(KG)(K)   21.6135  21.5826  21.5529  21.5243  21.4969  21.4705  21.4452  21.4209
 GAMMAs            1.6334   1.6344   1.6353   1.6362   1.6371   1.6380   1.6388   1.6396
 SON VEL,M/SEC     7670.6   7681.8   7692.9   7703.8   7714.7   7725.5   7736.3   7746.9

 TRANSPORT PROPERTIES (GASES ONLY)
   CONDUCTIVITY IN UNITS OF MILLIWATTS/(CM)(K)

 VISC,MILLIPOISE  0.48691  0.48780  0.48868  0.48957  0.49046  0.49134  0.49223  0.49312

  WITH EQUILIBRIUM REACTIONS

 Cp, KJ/(KG)(K)   21.6135  21.5826  21.5529  21.5243  21.4969  21.4705  21.4452  21.4209
 CONDUCTIVITY     15.9168  15.9180  15.9200  15.9230  15.9268  15.9314  15.9369  15.9431
 PRANDTL NUMBER    0.6612   0.6614   0.6616   0.6618   0.6620   0.6622   0.6624   0.6625

  WITH FROZEN REACTIONS

 Cp, KJ/(KG)(K)   20.6213  20.6214  20.6214  20.6215  20.6215  20.6216  20.6216  20.6216
 CONDUCTIVITY     15.0520  15.0797  15.1074  15.1351  15.1628  15.1905  15.2182  15.2459
 PRANDTL NUMBER    0.6671   0.6671   0.6670   0.6670   0.6670   0.6670   0.6670   0.6670

 MOLE FRACTIONS

 *e-              0.00000  0.00000  0.00000  0.00000  0.00000  0.00000  0.00000  0.00001
 *H               0.99927  0.99929  0.99931  0.99933  0.99935  0.99936  0.99938  0.99940
 *H+              0.00000  0.00000  0.00000  0.00000  0.00000  0.00000  0.00000  0.00001
 *H2              0.00072  0.00070  0.00068  0.00066  0.00064  0.00063  0.00061  0.00059

  * THERMODYNAMIC PROPERTIES FITTED TO 20000.K

 NOTE. WEIGHT FRACTION OF FUEL IN TOTAL FUELS AND OF OXIDANT IN TOTAL OXIDANTS









               THERMODYNAMIC EQUILIBRIUM PROPERTIES AT ASSIGNED

                           TEMPERATURE AND PRESSURE

 CASE =                

             REACTANT                    WT FRACTION      ENERGY      TEMP
                                          (SEE NOTE)     KJ/KG-MOL      K  
             H2                           1.0000000         0.000      0.000

 O/F=    0.00000  %FUEL=100.000000  R,EQ.RATIO= 0.000000  PHI,EQ.RATIO= 0.000000

 THERMODYNAMIC PROPERTIES

 P, BAR           0.00600  0.00600  0.00600  0.00600  0.00600  0.00670  0.00670  0.00670
 T, K             4450.00  4460.00  4470.00  4480.00  4490.00  4350.00  4360.00  4370.00
 RHO, KG/CU M    1.6354-5 1.6318-5 1.6281-5 1.6244-5 1.6208-5 1.8688-5 1.8644-5 1.8601-5
 H, KJ/KG        301646.4 301860.2 302073.9 302287.3 302500.5 299452.2 299670.0 299887.4
 U, KJ/KG        264959.1 265090.0 265220.6 265351.0 265481.2 263599.6 263734.0 263868.2
 G, KJ/KG       -640450.7-642568.0-644685.8-646804.1-648922.8-615347.8-617451.1-619554.8
 S, KJ/(KG)(K)   211.7072 211.7552 211.8031 211.8507 211.8983 210.2989 210.3489 210.3987

 M, (1/n)           1.009    1.008    1.008    1.008    1.008    1.009    1.009    1.009
 (dLV/dLP)t      -1.00058 -1.00056 -1.00055 -1.00053 -1.00052 -1.00086 -1.00083 -1.00081
 (dLV/dLT)p        1.0073   1.0071   1.0069   1.0067   1.0065   1.0110   1.0107   1.0103
 Cp, KJ/(KG)(K)   21.3975  21.3751  21.3535  21.3328  21.3129  21.7981  21.7606  21.7246
 GAMMAs            1.6403   1.6410   1.6417   1.6424   1.6430   1.6277   1.6288   1.6300
 SON VEL,M/SEC     7757.5   7768.0   7778.4   7788.7   7799.0   7639.1   7650.7   7662.2

 TRANSPORT PROPERTIES (GASES ONLY)
   CONDUCTIVITY IN UNITS OF MILLIWATTS/(CM)(K)

 VISC,MILLIPOISE  0.49400  0.49489  0.49577  0.49666  0.49755  0.48523  0.48611  0.48700

  WITH EQUILIBRIUM REACTIONS

 Cp, KJ/(KG)(K)   21.3975  21.3751  21.3535  21.3328  21.3129  21.7981  21.7606  21.7246
 CONDUCTIVITY     15.9500  15.9577  15.9661  15.9751  15.9847  16.0255  16.0213  16.0181
 PRANDTL NUMBER    0.6627   0.6629   0.6631   0.6632   0.6634   0.6600   0.6603   0.6605

  WITH FROZEN REACTIONS

 Cp, KJ/(KG)(K)   20.6217  20.6217  20.6218  20.6218  20.6218  20.6210  20.6211  20.6211
 CONDUCTIVITY     15.2736  15.3012  15.3289  15.3565  15.3842  14.9980  15.0257  15.0534
 PRANDTL NUMBER    0.6670   0.6670   0.6670   0.6669   0.6669   0.6672   0.6671   0.6671

 MOLE FRACTIONS

 *e-              0.00001  0.00001  0.00001  0.00001  0.00001  0.00000  0.00000  0.00000
 *H               0.99941  0.99943  0.99944  0.99946  0.99947  0.99914  0.99916  0.99919
 *H+              0.00001  0.00001  0.00001  0.00001  0.00001  0.00000  0.00000  0.00000
 *H2              0.00057  0.00056  0.00054  0.00053  0.00051  0.00086  0.00083  0.00081

  * THERMODYNAMIC PROPERTIES FITTED TO 20000.K

 NOTE. WEIGHT FRACTION OF FUEL IN TOTAL FUELS AND OF OXIDANT IN TOTAL OXIDANTS









               THERMODYNAMIC EQUILIBRIUM PROPERTIES AT ASSIGNED

                           TEMPERATURE AND PRESSURE

 CASE =                

             REACTANT                    WT FRACTION      ENERGY      TEMP
                                          (SEE NOTE)     KJ/KG-MOL      K  
             H2                           1.0000000         0.000      0.000

 O/F=    0.00000  %FUEL=100.000000  R,EQ.RATIO= 0.000000  PHI,EQ.RATIO= 0.000000

 THERMODYNAMIC PROPERTIES

 P, BAR           0.00670  0.00670  0.00670  0.00670  0.00670  0.00670  0.00670  0.00670
 T, K             4380.00  4390.00  4400.00  4410.00  4420.00  4430.00  4440.00  4450.00
 RHO, KG/CU M    1.8558-5 1.8516-5 1.8473-5 1.8431-5 1.8389-5 1.8347-5 1.8305-5 1.8264-5
 H, KJ/KG        300104.5 300321.2 300537.6 300753.7 300969.5 301185.0 301400.2 301615.2
 U, KJ/KG        264002.0 264135.5 264268.6 264401.5 264534.2 264666.5 264798.6 264930.4
 G, KJ/KG       -621659.0-623763.8-625869.0-627974.7-630080.9-632187.6-634294.8-636402.5
 S, KJ/(KG)(K)   210.4483 210.4977 210.5470 210.5960 210.6449 210.6936 210.7421 210.7905

 M, (1/n)           1.009    1.009    1.009    1.009    1.009    1.009    1.009    1.009
 (dLV/dLP)t      -1.00078 -1.00076 -1.00074 -1.00072 -1.00070 -1.00068 -1.00066 -1.00064
 (dLV/dLT)p        1.0100   1.0097   1.0094   1.0092   1.0089   1.0086   1.0084   1.0081
 Cp, KJ/(KG)(K)   21.6899  21.6566  21.6245  21.5938  21.5642  21.5357  21.5084  21.4821
 GAMMAs            1.6311   1.6321   1.6331   1.6341   1.6350   1.6359   1.6368   1.6377
 SON VEL,M/SEC     7673.7   7685.0   7696.2   7707.3   7718.4   7729.3   7740.2   7750.9

 TRANSPORT PROPERTIES (GASES ONLY)
   CONDUCTIVITY IN UNITS OF MILLIWATTS/(CM)(K)

 VISC,MILLIPOISE  0.48788  0.48876  0.48965  0.49053  0.49142  0.49230  0.49319  0.49407

  WITH EQUILIBRIUM REACTIONS

 Cp, KJ/(KG)(K)   21.6899  21.6566  21.6245  21.5938  21.5642  21.5357  21.5084  21.4821
 CONDUCTIVITY     16.0161  16.0151  16.0152  16.0162  16.0181  16.0209  16.0245  16.0290
 PRANDTL NUMBER    0.6607   0.6609   0.6612   0.6614   0.6616   0.6618   0.6620   0.6622

  WITH FROZEN REACTIONS

 Cp, KJ/(KG)(K)   20.6212  20.6213  20.6213  20.6214  20.6214  20.6215  20.6215  20.6216
 CONDUCTIVITY     15.0810  15.1087  15.1364  15.1641  15.1917  15.2194  15.2470  15.2747
 PRANDTL NUMBER    0.6671   0.6671   0.6671   0.6671   0.6671   0.6670   0.6670   0.6670

 MOLE FRACTIONS

 *e-              0.00000  0.00000  0.00000  0.00000  0.00000  0.00000  0.00000  0.00001
 *H               0.99921  0.99923  0.99925  0.99927  0.99929  0.99931  0.99933  0.99935
 *H+              0.00000  0.00000  0.00000  0.00000  0.00000  0.00000  0.00000  0.00001
 *H2              0.00078  0.00076  0.00074  0.00072  0.00070  0.00068  0.00066  0.00064

  * THERMODYNAMIC PROPERTIES FITTED TO 20000.K

 NOTE. WEIGHT FRACTION OF FUEL IN TOTAL FUELS AND OF OXIDANT IN TOTAL OXIDANTS









               THERMODYNAMIC EQUILIBRIUM PROPERTIES AT ASSIGNED

                           TEMPERATURE AND PRESSURE

 CASE =                

             REACTANT                    WT FRACTION      ENERGY      TEMP
                                          (SEE NOTE)     KJ/KG-MOL      K  
             H2                           1.0000000         0.000      0.000

 O/F=    0.00000  %FUEL=100.000000  R,EQ.RATIO= 0.000000  PHI,EQ.RATIO= 0.000000

 THERMODYNAMIC PROPERTIES

 P, BAR           0.00670  0.00670  0.00670  0.00670  0.00740  0.00740  0.00740  0.00740
 T, K             4460.00  4470.00  4480.00  4490.00  4350.00  4360.00  4370.00  4380.00
 RHO, KG/CU M    1.8222-5 1.8181-5 1.8140-5 1.8100-5 2.0642-5 2.0594-5 2.0546-5 2.0499-5
 H, KJ/KG        301829.9 302044.3 302258.5 302472.5 299411.0 299630.0 299848.5 300066.7
 U, KJ/KG        265062.0 265193.4 265324.5 265455.5 263561.5 263697.1 263832.3 263967.1
 G, KJ/KG       -638510.6-640619.2-642728.3-644837.9-611785.2-613880.2-615975.6-618071.6
 S, KJ/(KG)(K)   210.8387 210.8867 210.9346 210.9823 209.4704 209.5207 209.5707 209.6206

 M, (1/n)           1.009    1.009    1.009    1.009    1.009    1.009    1.009    1.009
 (dLV/dLP)t      -1.00063 -1.00061 -1.00059 -1.00058 -1.00094 -1.00092 -1.00089 -1.00087
 (dLV/dLT)p        1.0079   1.0077   1.0074   1.0072   1.0121   1.0118   1.0114   1.0111
 Cp, KJ/(KG)(K)   21.4568  21.4326  21.4092  21.3868  21.9171  21.8756  21.8357  21.7973
 GAMMAs            1.6385   1.6392   1.6400   1.6407   1.6241   1.6253   1.6266   1.6278
 SON VEL,M/SEC     7761.6   7772.2   7782.8   7793.2   7630.3   7642.2   7654.0   7665.6

 TRANSPORT PROPERTIES (GASES ONLY)
   CONDUCTIVITY IN UNITS OF MILLIWATTS/(CM)(K)

 VISC,MILLIPOISE  0.49496  0.49584  0.49672  0.49761  0.48532  0.48620  0.48708  0.48796

  WITH EQUILIBRIUM REACTIONS

 Cp, KJ/(KG)(K)   21.4568  21.4326  21.4092  21.3868  21.9171  21.8756  21.8357  21.7973
 CONDUCTIVITY     16.0343  16.0404  16.0472  16.0547  16.1334  16.1258  16.1194  16.1142
 PRANDTL NUMBER    0.6623   0.6625   0.6627   0.6629   0.6593   0.6596   0.6598   0.6601

  WITH FROZEN REACTIONS

 Cp, KJ/(KG)(K)   20.6216  20.6217  20.6217  20.6217  20.6209  20.6209  20.6210  20.6211
 CONDUCTIVITY     15.3023  15.3299  15.3576  15.3852  14.9994  15.0271  15.0547  15.0824
 PRANDTL NUMBER    0.6670   0.6670   0.6670   0.6670   0.6672   0.6672   0.6672   0.6672

 MOLE FRACTIONS

 *e-              0.00001  0.00001  0.00001  0.00001  0.00000  0.00000  0.00000  0.00000
 *H               0.99937  0.99938  0.99940  0.99941  0.99905  0.99908  0.99910  0.99913
 *H+              0.00001  0.00001  0.00001  0.00001  0.00000  0.00000  0.00000  0.00000
 *H2              0.00062  0.00061  0.00059  0.00057  0.00094  0.00092  0.00089  0.00087

  * THERMODYNAMIC PROPERTIES FITTED TO 20000.K

 NOTE. WEIGHT FRACTION OF FUEL IN TOTAL FUELS AND OF OXIDANT IN TOTAL OXIDANTS









               THERMODYNAMIC EQUILIBRIUM PROPERTIES AT ASSIGNED

                           TEMPERATURE AND PRESSURE

 CASE =                

             REACTANT                    WT FRACTION      ENERGY      TEMP
                                          (SEE NOTE)     KJ/KG-MOL      K  
             H2                           1.0000000         0.000      0.000

 O/F=    0.00000  %FUEL=100.000000  R,EQ.RATIO= 0.000000  PHI,EQ.RATIO= 0.000000

 THERMODYNAMIC PROPERTIES

 P, BAR           0.00740  0.00740  0.00740  0.00740  0.00740  0.00740  0.00740  0.00740
 T, K             4390.00  4400.00  4410.00  4420.00  4430.00  4440.00  4450.00  4460.00
 RHO, KG/CU M    2.0452-5 2.0405-5 2.0358-5 2.0311-5 2.0265-5 2.0219-5 2.0173-5 2.0128-5
 H, KJ/KG        300284.5 300501.9 300719.0 300935.7 301152.1 301368.2 301584.1 301799.6
 U, KJ/KG        264101.6 264235.7 264369.5 264503.0 264636.2 264769.1 264901.8 265034.1
 G, KJ/KG       -620168.0-622265.0-624362.4-626460.4-628558.8-630657.7-632757.1-634857.0
 S, KJ/(KG)(K)   209.6703 209.7197 209.7690 209.8181 209.8670 209.9158 209.9643 210.0127

 M, (1/n)           1.009    1.009    1.009    1.009    1.009    1.009    1.009    1.009
 (dLV/dLP)t      -1.00084 -1.00082 -1.00079 -1.00077 -1.00075 -1.00073 -1.00071 -1.00069
 (dLV/dLT)p        1.0107   1.0104   1.0101   1.0098   1.0095   1.0092   1.0090   1.0087
 Cp, KJ/(KG)(K)   21.7604  21.7249  21.6908  21.6580  21.6264  21.5960  21.5669  21.5388
 GAMMAs            1.6289   1.6300   1.6311   1.6321   1.6331   1.6341   1.6350   1.6359
 SON VEL,M/SEC     7677.2   7688.6   7700.0   7711.2   7722.4   7733.5   7744.4   7755.3

 TRANSPORT PROPERTIES (GASES ONLY)
   CONDUCTIVITY IN UNITS OF MILLIWATTS/(CM)(K)

 VISC,MILLIPOISE  0.48884  0.48973  0.49061  0.49149  0.49237  0.49326  0.49414  0.49502

  WITH EQUILIBRIUM REACTIONS

 Cp, KJ/(KG)(K)   21.7604  21.7249  21.6908  21.6579  21.6264  21.5960  21.5669  21.5388
 CONDUCTIVITY     16.1102  16.1073  16.1055  16.1047  16.1049  16.1060  16.1080  16.1109
 PRANDTL NUMBER    0.6603   0.6605   0.6607   0.6610   0.6612   0.6614   0.6616   0.6618

  WITH FROZEN REACTIONS

 Cp, KJ/(KG)(K)   20.6211  20.6212  20.6212  20.6213  20.6213  20.6214  20.6214  20.6215
 CONDUCTIVITY     15.1100  15.1377  15.1653  15.1929  15.2206  15.2482  15.2758  15.3034
 PRANDTL NUMBER    0.6671   0.6671   0.6671   0.6671   0.6671   0.6671   0.6671   0.6670

 MOLE FRACTIONS

 *e-              0.00000  0.00000  0.00000  0.00000  0.00000  0.00000  0.00000  0.00001
 *H               0.99915  0.99918  0.99920  0.99922  0.99924  0.99926  0.99928  0.99930
 *H+              0.00000  0.00000  0.00000  0.00000  0.00000  0.00000  0.00000  0.00001
 *H2              0.00084  0.00082  0.00079  0.00077  0.00075  0.00073  0.00071  0.00069

  * THERMODYNAMIC PROPERTIES FITTED TO 20000.K

 NOTE. WEIGHT FRACTION OF FUEL IN TOTAL FUELS AND OF OXIDANT IN TOTAL OXIDANTS









               THERMODYNAMIC EQUILIBRIUM PROPERTIES AT ASSIGNED

                           TEMPERATURE AND PRESSURE

 CASE =                

             REACTANT                    WT FRACTION      ENERGY      TEMP
                                          (SEE NOTE)     KJ/KG-MOL      K  
             H2                           1.0000000         0.000      0.000

 O/F=    0.00000  %FUEL=100.000000  R,EQ.RATIO= 0.000000  PHI,EQ.RATIO= 0.000000

 THERMODYNAMIC PROPERTIES

 P, BAR           0.00740  0.00740  0.00740  0.00825  0.00825  0.00825  0.00825  0.00825
 T, K             4470.00  4480.00  4490.00  4350.00  4360.00  4370.00  4380.00  4390.00
 RHO, KG/CU M    2.0082-5 2.0037-5 1.9992-5 2.3015-5 2.2962-5 2.2909-5 2.2856-5 2.2803-5
 H, KJ/KG        302014.8 302229.8 302444.6 299361.0 299581.4 299801.3 300020.8 300239.9
 U, KJ/KG        265166.2 265298.1 265429.7 263515.5 263652.4 263788.8 263924.9 264060.5
 G, KJ/KG       -636957.4-639058.2-641159.6-607887.4-609973.3-612059.7-614146.6-616234.0
 S, KJ/(KG)(K)   210.0609 210.1089 210.1568 208.5629 208.6135 208.6638 208.7140 208.7640

 M, (1/n)           1.009    1.009    1.009    1.009    1.009    1.009    1.009    1.009
 (dLV/dLP)t      -1.00067 -1.00065 -1.00064 -1.00105 -1.00102 -1.00099 -1.00096 -1.00094
 (dLV/dLT)p        1.0084   1.0082   1.0080   1.0135   1.0131   1.0127   1.0123   1.0119
 Cp, KJ/(KG)(K)   21.5118  21.4859  21.4610  22.0616  22.0153  21.9707  21.9278  21.8865
 GAMMAs            1.6368   1.6376   1.6384   1.6198   1.6212   1.6225   1.6239   1.6251
 SON VEL,M/SEC     7766.1   7776.8   7787.5   7619.8   7632.0   7644.1   7656.0   7667.8

 TRANSPORT PROPERTIES (GASES ONLY)
   CONDUCTIVITY IN UNITS OF MILLIWATTS/(CM)(K)

 VISC,MILLIPOISE  0.49590  0.49679  0.49767  0.48543  0.48630  0.48718  0.48806  0.48894

  WITH EQUILIBRIUM REACTIONS

 Cp, KJ/(KG)(K)   21.5118  21.4859  21.4610  22.0616  22.0153  21.9707  21.9278  21.8865
 CONDUCTIVITY     16.1147  16.1193  16.1246  16.2642  16.2525  16.2422  16.2333  16.2256
 PRANDTL NUMBER    0.6620   0.6622   0.6624   0.6585   0.6587   0.6590   0.6593   0.6595

  WITH FROZEN REACTIONS

 Cp, KJ/(KG)(K)   20.6215  20.6216  20.6216  20.6207  20.6207  20.6208  20.6209  20.6209
 CONDUCTIVITY     15.3310  15.3586  15.3862  15.0012  15.0288  15.0564  15.0840  15.1116
 PRANDTL NUMBER    0.6670   0.6670   0.6670   0.6673   0.6672   0.6672   0.6672   0.6672

 MOLE FRACTIONS

 *e-              0.00001  0.00001  0.00001  0.00000  0.00000  0.00000  0.00000  0.00000
 *H               0.99932  0.99934  0.99935  0.99894  0.99897  0.99900  0.99903  0.99906
 *H+              0.00001  0.00001  0.00001  0.00000  0.00000  0.00000  0.00000  0.00000
 *H2              0.00067  0.00065  0.00063  0.00105  0.00102  0.00099  0.00096  0.00094

  * THERMODYNAMIC PROPERTIES FITTED TO 20000.K

 NOTE. WEIGHT FRACTION OF FUEL IN TOTAL FUELS AND OF OXIDANT IN TOTAL OXIDANTS









               THERMODYNAMIC EQUILIBRIUM PROPERTIES AT ASSIGNED

                           TEMPERATURE AND PRESSURE

 CASE =                

             REACTANT                    WT FRACTION      ENERGY      TEMP
                                          (SEE NOTE)     KJ/KG-MOL      K  
             H2                           1.0000000         0.000      0.000

 O/F=    0.00000  %FUEL=100.000000  R,EQ.RATIO= 0.000000  PHI,EQ.RATIO= 0.000000

 THERMODYNAMIC PROPERTIES

 P, BAR           0.00825  0.00825  0.00825  0.00825  0.00825  0.00825  0.00825  0.00825
 T, K             4400.00  4410.00  4420.00  4430.00  4440.00  4450.00  4460.00  4470.00
 RHO, KG/CU M    2.2751-5 2.2698-5 2.2647-5 2.2595-5 2.2543-5 2.2492-5 2.2441-5 2.2391-5
 H, KJ/KG        300458.6 300676.8 300894.7 301112.3 301329.5 301546.3 301762.9 301979.1
 U, KJ/KG        264195.8 264330.7 264465.3 264599.5 264733.4 264867.0 265000.3 265133.4
 G, KJ/KG       -618321.8-620410.2-622499.1-624588.5-626678.3-628768.7-630859.5-632950.9
 S, KJ/(KG)(K)   208.8137 208.8633 208.9126 208.9618 209.0108 209.0596 209.1082 209.1566

 M, (1/n)           1.009    1.009    1.009    1.009    1.009    1.009    1.009    1.009
 (dLV/dLP)t      -1.00091 -1.00088 -1.00086 -1.00084 -1.00081 -1.00079 -1.00077 -1.00075
 (dLV/dLT)p        1.0116   1.0112   1.0109   1.0106   1.0103   1.0100   1.0097   1.0094
 Cp, KJ/(KG)(K)   21.8468  21.8087  21.7720  21.7366  21.7027  21.6700  21.6385  21.6083
 GAMMAs            1.6263   1.6275   1.6287   1.6298   1.6308   1.6318   1.6328   1.6338
 SON VEL,M/SEC     7679.6   7691.2   7702.7   7714.1   7725.4   7736.6   7747.7   7758.7

 TRANSPORT PROPERTIES (GASES ONLY)
   CONDUCTIVITY IN UNITS OF MILLIWATTS/(CM)(K)

 VISC,MILLIPOISE  0.48982  0.49070  0.49158  0.49246  0.49334  0.49422  0.49510  0.49598

  WITH EQUILIBRIUM REACTIONS

 Cp, KJ/(KG)(K)   21.8468  21.8087  21.7720  21.7366  21.7027  21.6700  21.6385  21.6083
 CONDUCTIVITY     16.2192  16.2139  16.2098  16.2068  16.2048  16.2039  16.2040  16.2049
 PRANDTL NUMBER    0.6598   0.6600   0.6603   0.6605   0.6607   0.6609   0.6612   0.6614

  WITH FROZEN REACTIONS

 Cp, KJ/(KG)(K)   20.6210  20.6211  20.6211  20.6212  20.6213  20.6213  20.6214  20.6214
 CONDUCTIVITY     15.1392  15.1668  15.1944  15.2220  15.2496  15.2771  15.3047  15.3323
 PRANDTL NUMBER    0.6672   0.6672   0.6672   0.6671   0.6671   0.6671   0.6671   0.6671

 MOLE FRACTIONS

 *e-              0.00000  0.00000  0.00000  0.00000  0.00000  0.00000  0.00000  0.00001
 *H               0.99908  0.99911  0.99913  0.99916  0.99918  0.99920  0.99922  0.99924
 *H+              0.00000  0.00000  0.00000  0.00000  0.00000  0.00000  0.00000  0.00001
 *H2              0.00091  0.00088  0.00086  0.00084  0.00081  0.00079  0.00077  0.00075

  * THERMODYNAMIC PROPERTIES FITTED TO 20000.K

 NOTE. WEIGHT FRACTION OF FUEL IN TOTAL FUELS AND OF OXIDANT IN TOTAL OXIDANTS









               THERMODYNAMIC EQUILIBRIUM PROPERTIES AT ASSIGNED

                           TEMPERATURE AND PRESSURE

 CASE =                

             REACTANT                    WT FRACTION      ENERGY      TEMP
                                          (SEE NOTE)     KJ/KG-MOL      K  
             H2                           1.0000000         0.000      0.000

 O/F=    0.00000  %FUEL=100.000000  R,EQ.RATIO= 0.000000  PHI,EQ.RATIO= 0.000000

 THERMODYNAMIC PROPERTIES

 P, BAR           0.00825  0.00825  0.00910  0.00910  0.00910  0.00910  0.00910  0.00910
 T, K             4480.00  4490.00  4350.00  4360.00  4370.00  4380.00  4390.00  4400.00
 RHO, KG/CU M    2.2340-5 2.2290-5 2.5389-5 2.5330-5 2.5272-5 2.5213-5 2.5155-5 2.5097-5
 H, KJ/KG        302195.1 302410.7 299311.1 299532.9 299754.2 299975.1 300195.4 300415.3
 U, KJ/KG        265266.1 265398.6 263469.5 263607.7 263745.4 263882.7 264019.5 264155.9
 G, KJ/KG       -635042.7-637135.0-604372.5-606450.2-608528.4-610607.1-612686.3-614766.0
 S, KJ/(KG)(K)   209.2048 209.2529 207.7434 207.7943 207.8450 207.8955 207.9457 207.9958

 M, (1/n)           1.009    1.009    1.009    1.009    1.009    1.009    1.009    1.009
 (dLV/dLP)t      -1.00073 -1.00071 -1.00116 -1.00113 -1.00109 -1.00106 -1.00103 -1.00100
 (dLV/dLT)p        1.0091   1.0089   1.0149   1.0144   1.0140   1.0136   1.0132   1.0128
 Cp, KJ/(KG)(K)   21.5792  21.5512  22.2061  22.1549  22.1056  22.0583  22.0127  21.9688
 GAMMAs            1.6347   1.6356   1.6156   1.6171   1.6186   1.6200   1.6214   1.6227
 SON VEL,M/SEC     7769.7   7780.5   7609.5   7622.0   7634.3   7646.5   7658.6   7670.6

 TRANSPORT PROPERTIES (GASES ONLY)
   CONDUCTIVITY IN UNITS OF MILLIWATTS/(CM)(K)

 VISC,MILLIPOISE  0.49686  0.49775  0.48553  0.48641  0.48728  0.48816  0.48904  0.48992

  WITH EQUILIBRIUM REACTIONS

 Cp, KJ/(KG)(K)   21.5792  21.5512  22.2061  22.1549  22.1056  22.0583  22.0127  21.9688
 CONDUCTIVITY     16.2068  16.2096  16.3950  16.3792  16.3650  16.3522  16.3409  16.3309
 PRANDTL NUMBER    0.6616   0.6618   0.6576   0.6579   0.6582   0.6585   0.6588   0.6590

  WITH FROZEN REACTIONS

 Cp, KJ/(KG)(K)   20.6215  20.6215  20.6205  20.6205  20.6206  20.6207  20.6208  20.6208
 CONDUCTIVITY     15.3598  15.3874  15.0029  15.0305  15.0581  15.0856  15.1132  15.1407
 PRANDTL NUMBER    0.6671   0.6671   0.6673   0.6673   0.6673   0.6673   0.6673   0.6672

 MOLE FRACTIONS

 *e-              0.00001  0.00001  0.00000  0.00000  0.00000  0.00000  0.00000  0.00000
 *H               0.99926  0.99928  0.99883  0.99887  0.99890  0.99893  0.99896  0.99899
 *H+              0.00001  0.00001  0.00000  0.00000  0.00000  0.00000  0.00000  0.00000
 *H2              0.00073  0.00071  0.00116  0.00113  0.00110  0.00106  0.00103  0.00100

  * THERMODYNAMIC PROPERTIES FITTED TO 20000.K

 NOTE. WEIGHT FRACTION OF FUEL IN TOTAL FUELS AND OF OXIDANT IN TOTAL OXIDANTS









               THERMODYNAMIC EQUILIBRIUM PROPERTIES AT ASSIGNED

                           TEMPERATURE AND PRESSURE

 CASE =                

             REACTANT                    WT FRACTION      ENERGY      TEMP
                                          (SEE NOTE)     KJ/KG-MOL      K  
             H2                           1.0000000         0.000      0.000

 O/F=    0.00000  %FUEL=100.000000  R,EQ.RATIO= 0.000000  PHI,EQ.RATIO= 0.000000

 THERMODYNAMIC PROPERTIES

 P, BAR           0.00910  0.00910  0.00910  0.00910  0.00910  0.00910  0.00910  0.00910
 T, K             4410.00  4420.00  4430.00  4440.00  4450.00  4460.00  4470.00  4480.00
 RHO, KG/CU M    2.5039-5 2.4982-5 2.4925-5 2.4868-5 2.4812-5 2.4755-5 2.4699-5 2.4644-5
 H, KJ/KG        300634.8 300853.9 301072.5 301290.8 301508.7 301726.3 301943.5 302160.4
 U, KJ/KG        264292.0 264427.6 264562.9 264697.8 264832.4 264966.6 265100.6 265234.2
 G, KJ/KG       -616846.2-618926.9-621008.1-623089.8-625172.0-627254.7-629337.9-631421.5
 S, KJ/(KG)(K)   208.0456 208.0952 208.1446 208.1938 208.2429 208.2917 208.3403 208.3888

 M, (1/n)           1.009    1.009    1.009    1.009    1.009    1.009    1.009    1.009
 (dLV/dLP)t      -1.00097 -1.00095 -1.00092 -1.00090 -1.00087 -1.00085 -1.00082 -1.00080
 (dLV/dLT)p        1.0124   1.0120   1.0117   1.0113   1.0110   1.0107   1.0103   1.0100
 Cp, KJ/(KG)(K)   21.9266  21.8860  21.8470  21.8094  21.7732  21.7384  21.7049  21.6727
 GAMMAs            1.6240   1.6252   1.6264   1.6276   1.6287   1.6298   1.6308   1.6318
 SON VEL,M/SEC     7682.5   7694.2   7705.9   7717.4   7728.9   7740.2   7751.4   7762.6

 TRANSPORT PROPERTIES (GASES ONLY)
   CONDUCTIVITY IN UNITS OF MILLIWATTS/(CM)(K)

 VISC,MILLIPOISE  0.49079  0.49167  0.49255  0.49343  0.49431  0.49518  0.49606  0.49694

  WITH EQUILIBRIUM REACTIONS

 Cp, KJ/(KG)(K)   21.9266  21.8860  21.8470  21.8094  21.7732  21.7384  21.7049  21.6727
 CONDUCTIVITY     16.3223  16.3149  16.3087  16.3037  16.2997  16.2969  16.2951  16.2943
 PRANDTL NUMBER    0.6593   0.6596   0.6598   0.6601   0.6603   0.6605   0.6607   0.6610

  WITH FROZEN REACTIONS

 Cp, KJ/(KG)(K)   20.6209  20.6210  20.6210  20.6211  20.6212  20.6212  20.6213  20.6213
 CONDUCTIVITY     15.1683  15.1959  15.2234  15.2510  15.2785  15.3060  15.3336  15.3611
 PRANDTL NUMBER    0.6672   0.6672   0.6672   0.6672   0.6672   0.6671   0.6671   0.6671

 MOLE FRACTIONS

 *H               0.99902  0.99904  0.99907  0.99910  0.99912  0.99914  0.99917  0.99919
 *H2              0.00098  0.00095  0.00092  0.00090  0.00087  0.00085  0.00082  0.00080

  * THERMODYNAMIC PROPERTIES FITTED TO 20000.K

 NOTE. WEIGHT FRACTION OF FUEL IN TOTAL FUELS AND OF OXIDANT IN TOTAL OXIDANTS









               THERMODYNAMIC EQUILIBRIUM PROPERTIES AT ASSIGNED

                           TEMPERATURE AND PRESSURE

 CASE =                

             REACTANT                    WT FRACTION      ENERGY      TEMP
                                          (SEE NOTE)     KJ/KG-MOL      K  
             H2                           1.0000000         0.000      0.000

 O/F=    0.00000  %FUEL=100.000000  R,EQ.RATIO= 0.000000  PHI,EQ.RATIO= 0.000000

 THERMODYNAMIC PROPERTIES

 P, BAR           0.00910  0.01000  0.01000  0.01000  0.01000  0.01000  0.01000  0.01000
 T, K             4490.00  4350.00  4360.00  4370.00  4380.00  4390.00  4400.00  4410.00
 RHO, KG/CU M    2.4588-5 2.7904-5 2.7839-5 2.7774-5 2.7710-5 2.7646-5 2.7582-5 2.7518-5
 H, KJ/KG        302376.9 299258.4 299481.7 299704.4 299926.6 300148.4 300369.6 300590.3
 U, KJ/KG        265367.5 263420.8 263560.4 263699.5 263838.0 263976.2 264113.8 264251.0
 G, KJ/KG       -633505.6-600992.5-603062.3-605132.6-607203.4-609274.7-611346.6-613418.9
 S, KJ/(KG)(K)   208.4371 206.9542 207.0055 207.0565 207.1073 207.1579 207.2082 207.2583

 M, (1/n)           1.009    1.009    1.009    1.009    1.009    1.009    1.009    1.009
 (dLV/dLP)t      -1.00078 -1.00127 -1.00124 -1.00120 -1.00117 -1.00113 -1.00110 -1.00107
 (dLV/dLT)p        1.0098   1.0164   1.0158   1.0154   1.0149   1.0144   1.0140   1.0136
 Cp, KJ/(KG)(K)   21.6417  22.3589  22.3027  22.2485  22.1964  22.1462  22.0980  22.0515
 GAMMAs            1.6328   1.6112   1.6128   1.6144   1.6160   1.6175   1.6189   1.6203
 SON VEL,M/SEC     7773.6   7598.8   7611.5   7624.2   7636.6   7649.0   7661.3   7673.4

 TRANSPORT PROPERTIES (GASES ONLY)
   CONDUCTIVITY IN UNITS OF MILLIWATTS/(CM)(K)

 VISC,MILLIPOISE  0.49782  0.48565  0.48652  0.48739  0.48827  0.48914  0.49002  0.49089

  WITH EQUILIBRIUM REACTIONS

 Cp, KJ/(KG)(K)   21.6417  22.3589  22.3027  22.2485  22.1964  22.1462  22.0980  22.0515
 CONDUCTIVITY     16.2945  16.5333  16.5132  16.4948  16.4781  16.4629  16.4492  16.4369
 PRANDTL NUMBER    0.6612   0.6568   0.6571   0.6574   0.6577   0.6580   0.6583   0.6586

  WITH FROZEN REACTIONS

 Cp, KJ/(KG)(K)   20.6214  20.6202  20.6203  20.6204  20.6205  20.6206  20.6207  20.6207
 CONDUCTIVITY     15.3886  15.0048  15.0323  15.0598  15.0873  15.1149  15.1424  15.1699
 PRANDTL NUMBER    0.6671   0.6674   0.6674   0.6674   0.6673   0.6673   0.6673   0.6673

 MOLE FRACTIONS

 *e-              0.00001  0.00000  0.00000  0.00000  0.00000  0.00000  0.00000  0.00000
 *H               0.99921  0.99872  0.99876  0.99879  0.99882  0.99886  0.99889  0.99892
 *H+              0.00001  0.00000  0.00000  0.00000  0.00000  0.00000  0.00000  0.00000
 *H2              0.00078  0.00128  0.00124  0.00120  0.00117  0.00114  0.00110  0.00107

  * THERMODYNAMIC PROPERTIES FITTED TO 20000.K

 NOTE. WEIGHT FRACTION OF FUEL IN TOTAL FUELS AND OF OXIDANT IN TOTAL OXIDANTS









               THERMODYNAMIC EQUILIBRIUM PROPERTIES AT ASSIGNED

                           TEMPERATURE AND PRESSURE

 CASE =                

             REACTANT                    WT FRACTION      ENERGY      TEMP
                                          (SEE NOTE)     KJ/KG-MOL      K  
             H2                           1.0000000         0.000      0.000

 O/F=    0.00000  %FUEL=100.000000  R,EQ.RATIO= 0.000000  PHI,EQ.RATIO= 0.000000

 THERMODYNAMIC PROPERTIES

 P, BAR           0.01000  0.01000  0.01000  0.01000  0.01000  0.01000  0.01000  0.01000
 T, K             4420.00  4430.00  4440.00  4450.00  4460.00  4470.00  4480.00  4490.00
 RHO, KG/CU M    2.7455-5 2.7393-5 2.7330-5 2.7268-5 2.7206-5 2.7144-5 2.7083-5 2.7022-5
 H, KJ/KG        300810.6 301030.5 301249.9 301468.9 301687.6 301905.8 302123.7 302341.3
 U, KJ/KG        264387.8 264524.2 264660.2 264795.8 264931.0 265065.9 265200.4 265334.7
 G, KJ/KG       -615491.7-617565.1-619638.9-621713.2-623788.0-625863.3-627939.1-630015.4
 S, KJ/(KG)(K)   207.3082 207.3579 207.4074 207.4567 207.5057 207.5546 207.6033 207.6518

 M, (1/n)           1.009    1.009    1.009    1.009    1.009    1.009    1.009    1.009
 (dLV/dLP)t      -1.00104 -1.00101 -1.00098 -1.00096 -1.00093 -1.00090 -1.00088 -1.00086
 (dLV/dLT)p        1.0132   1.0128   1.0124   1.0120   1.0117   1.0114   1.0110   1.0107
 Cp, KJ/(KG)(K)   22.0069  21.9638  21.9224  21.8826  21.8442  21.8073  21.7717  21.7375
 GAMMAs            1.6217   1.6230   1.6242   1.6254   1.6266   1.6277   1.6288   1.6299
 SON VEL,M/SEC     7685.4   7697.3   7709.1   7720.7   7732.3   7743.8   7755.1   7766.4

 TRANSPORT PROPERTIES (GASES ONLY)
   CONDUCTIVITY IN UNITS OF MILLIWATTS/(CM)(K)

 VISC,MILLIPOISE  0.49177  0.49264  0.49352  0.49439  0.49527  0.49615  0.49702  0.49790

  WITH EQUILIBRIUM REACTIONS

 Cp, KJ/(KG)(K)   22.0069  21.9638  21.9224  21.8826  21.8442  21.8073  21.7717  21.7375
 CONDUCTIVITY     16.4260  16.4165  16.4082  16.4012  16.3953  16.3906  16.3869  16.3844
 PRANDTL NUMBER    0.6588   0.6591   0.6594   0.6596   0.6599   0.6601   0.6603   0.6606

  WITH FROZEN REACTIONS

 Cp, KJ/(KG)(K)   20.6208  20.6209  20.6210  20.6210  20.6211  20.6211  20.6212  20.6213
 CONDUCTIVITY     15.1974  15.2249  15.2524  15.2799  15.3074  15.3349  15.3624  15.3899
 PRANDTL NUMBER    0.6673   0.6672   0.6672   0.6672   0.6672   0.6672   0.6672   0.6671

 MOLE FRACTIONS

 *H               0.99895  0.99898  0.99901  0.99903  0.99906  0.99909  0.99911  0.99913
 *H2              0.00104  0.00101  0.00098  0.00096  0.00093  0.00090  0.00088  0.00086

  * THERMODYNAMIC PROPERTIES FITTED TO 20000.K

 NOTE. WEIGHT FRACTION OF FUEL IN TOTAL FUELS AND OF OXIDANT IN TOTAL OXIDANTS









               THERMODYNAMIC EQUILIBRIUM PROPERTIES AT ASSIGNED

                           TEMPERATURE AND PRESSURE

 CASE =                

             REACTANT                    WT FRACTION      ENERGY      TEMP
                                          (SEE NOTE)     KJ/KG-MOL      K  
             H2                           1.0000000         0.000      0.000

 O/F=    0.00000  %FUEL=100.000000  R,EQ.RATIO= 0.000000  PHI,EQ.RATIO= 0.000000

 THERMODYNAMIC PROPERTIES

 P, BAR           0.01100  0.01100  0.01100  0.01100  0.01100  0.01100  0.01100  0.01100
 T, K             4350.00  4360.00  4370.00  4380.00  4390.00  4400.00  4410.00  4420.00
 RHO, KG/CU M    3.0698-5 3.0626-5 3.0555-5 3.0484-5 3.0414-5 3.0343-5 3.0273-5 3.0204-5
 H, KJ/KG        299199.8 299424.8 299649.1 299872.9 300096.1 300318.8 300541.0 300762.6
 U, KJ/KG        263366.8 263507.9 263648.5 263788.5 263928.0 264067.0 264205.6 264343.6
 G, KJ/KG       -597577.0-599638.8-601701.1-603764.0-605827.3-607891.2-609955.6-612020.4
 S, KJ/(KG)(K)   206.1556 206.2072 206.2586 206.3098 206.3607 206.4114 206.4618 206.5120

 M, (1/n)           1.009    1.009    1.009    1.009    1.009    1.009    1.009    1.009
 (dLV/dLP)t      -1.00140 -1.00136 -1.00132 -1.00128 -1.00125 -1.00121 -1.00118 -1.00114
 (dLV/dLT)p        1.0180   1.0174   1.0169   1.0164   1.0159   1.0154   1.0149   1.0145
 Cp, KJ/(KG)(K)   22.5287  22.4667  22.4072  22.3498  22.2946  22.2415  22.1903  22.1411
 GAMMAs            1.6064   1.6082   1.6099   1.6116   1.6132   1.6148   1.6163   1.6177
 SON VEL,M/SEC     7587.1   7600.1   7613.0   7625.8   7638.5   7651.0   7663.4   7675.7

 TRANSPORT PROPERTIES (GASES ONLY)
   CONDUCTIVITY IN UNITS OF MILLIWATTS/(CM)(K)

 VISC,MILLIPOISE  0.48577  0.48664  0.48751  0.48838  0.48925  0.49013  0.49100  0.49187

  WITH EQUILIBRIUM REACTIONS

 Cp, KJ/(KG)(K)   22.5287  22.4667  22.4072  22.3498  22.2946  22.2415  22.1903  22.1411
 CONDUCTIVITY     16.6868  16.6619  16.6390  16.6178  16.5983  16.5805  16.5642  16.5495
 PRANDTL NUMBER    0.6558   0.6562   0.6565   0.6568   0.6572   0.6575   0.6578   0.6581

  WITH FROZEN REACTIONS

 Cp, KJ/(KG)(K)   20.6200  20.6201  20.6202  20.6203  20.6204  20.6205  20.6206  20.6206
 CONDUCTIVITY     15.0068  15.0343  15.0618  15.0892  15.1167  15.1442  15.1716  15.1991
 PRANDTL NUMBER    0.6675   0.6674   0.6674   0.6674   0.6674   0.6674   0.6673   0.6673

 MOLE FRACTIONS

 *H               0.99859  0.99863  0.99867  0.99871  0.99875  0.99878  0.99881  0.99885
 *H2              0.00140  0.00136  0.00132  0.00129  0.00125  0.00121  0.00118  0.00115

  * THERMODYNAMIC PROPERTIES FITTED TO 20000.K

 NOTE. WEIGHT FRACTION OF FUEL IN TOTAL FUELS AND OF OXIDANT IN TOTAL OXIDANTS









               THERMODYNAMIC EQUILIBRIUM PROPERTIES AT ASSIGNED

                           TEMPERATURE AND PRESSURE

 CASE =                

             REACTANT                    WT FRACTION      ENERGY      TEMP
                                          (SEE NOTE)     KJ/KG-MOL      K  
             H2                           1.0000000         0.000      0.000

 O/F=    0.00000  %FUEL=100.000000  R,EQ.RATIO= 0.000000  PHI,EQ.RATIO= 0.000000

 THERMODYNAMIC PROPERTIES

 P, BAR           0.01100  0.01100  0.01100  0.01100  0.01100  0.01100  0.01100  0.01200
 T, K             4430.00  4440.00  4450.00  4460.00  4470.00  4480.00  4490.00  4350.00
 RHO, KG/CU M    3.0135-5 3.0066-5 2.9998-5 2.9929-5 2.9862-5 2.9794-5 2.9727-5 3.3493-5
 H, KJ/KG        300983.8 301204.5 301424.8 301644.6 301864.0 302083.0 302301.7 299141.3
 U, KJ/KG        264481.2 264618.4 264755.1 264891.5 265027.4 265163.0 265298.3 263312.8
 G, KJ/KG       -614085.8-616151.7-618218.0-620284.9-622352.3-624420.1-626488.4-594459.3
 S, KJ/(KG)(K)   206.5620 206.6118 206.6613 206.7107 206.7598 206.8087 206.8575 205.4254

 M, (1/n)           1.009    1.009    1.009    1.009    1.009    1.009    1.009    1.009
 (dLV/dLP)t      -1.00111 -1.00108 -1.00105 -1.00102 -1.00099 -1.00097 -1.00094 -1.00152
 (dLV/dLT)p        1.0141   1.0136   1.0132   1.0128   1.0125   1.0121   1.0118   1.0196
 Cp, KJ/(KG)(K)   22.0937  22.0481  22.0041  21.9619  21.9211  21.8819  21.8442  22.6982
 GAMMAs            1.6192   1.6205   1.6218   1.6231   1.6244   1.6256   1.6267   1.6018
 SON VEL,M/SEC     7687.9   7699.9   7711.8   7723.7   7735.4   7747.0   7758.5   7575.6

 TRANSPORT PROPERTIES (GASES ONLY)
   CONDUCTIVITY IN UNITS OF MILLIWATTS/(CM)(K)

 VISC,MILLIPOISE  0.49274  0.49362  0.49449  0.49536  0.49624  0.49711  0.49799  0.48590

  WITH EQUILIBRIUM REACTIONS

 Cp, KJ/(KG)(K)   22.0937  22.0481  22.0041  21.9619  21.9211  21.8819  21.8442  22.6982
 CONDUCTIVITY     16.5362  16.5243  16.5138  16.5045  16.4966  16.4898  16.4842  16.8401
 PRANDTL NUMBER    0.6583   0.6586   0.6589   0.6592   0.6594   0.6597   0.6599   0.6549

  WITH FROZEN REACTIONS

 Cp, KJ/(KG)(K)   20.6207  20.6208  20.6209  20.6209  20.6210  20.6211  20.6211  20.6198
 CONDUCTIVITY     15.2266  15.2541  15.2815  15.3090  15.3364  15.3639  15.3913  15.0089
 PRANDTL NUMBER    0.6673   0.6673   0.6673   0.6672   0.6672   0.6672   0.6672   0.6675

 MOLE FRACTIONS

 *H               0.99888  0.99891  0.99894  0.99897  0.99900  0.99902  0.99905  0.99846
 *H2              0.00111  0.00108  0.00105  0.00102  0.00100  0.00097  0.00094  0.00153

  * THERMODYNAMIC PROPERTIES FITTED TO 20000.K

 NOTE. WEIGHT FRACTION OF FUEL IN TOTAL FUELS AND OF OXIDANT IN TOTAL OXIDANTS









               THERMODYNAMIC EQUILIBRIUM PROPERTIES AT ASSIGNED

                           TEMPERATURE AND PRESSURE

 CASE =                

             REACTANT                    WT FRACTION      ENERGY      TEMP
                                          (SEE NOTE)     KJ/KG-MOL      K  
             H2                           1.0000000         0.000      0.000

 O/F=    0.00000  %FUEL=100.000000  R,EQ.RATIO= 0.000000  PHI,EQ.RATIO= 0.000000

 THERMODYNAMIC PROPERTIES

 P, BAR           0.01200  0.01200  0.01200  0.01200  0.01200  0.01200  0.01200  0.01200
 T, K             4360.00  4370.00  4380.00  4390.00  4400.00  4410.00  4420.00  4430.00
 RHO, KG/CU M    3.3415-5 3.3337-5 3.3259-5 3.3182-5 3.3105-5 3.3029-5 3.2953-5 3.2878-5
 H, KJ/KG        299367.9 299593.9 299819.3 300044.0 300268.1 300491.7 300714.7 300937.2
 U, KJ/KG        263455.5 263597.6 263739.1 263880.0 264020.3 264160.2 264299.5 264438.3
 G, KJ/KG       -596513.8-598568.9-600624.4-602680.5-604737.1-606794.1-608851.7-610909.8
 S, KJ/(KG)(K)   205.4775 205.5292 205.5807 205.6320 205.6830 205.7337 205.7843 205.8345

 M, (1/n)           1.009    1.009    1.009    1.009    1.009    1.009    1.009    1.009
 (dLV/dLP)t      -1.00148 -1.00144 -1.00140 -1.00136 -1.00132 -1.00128 -1.00125 -1.00121
 (dLV/dLT)p        1.0190   1.0184   1.0178   1.0173   1.0168   1.0163   1.0158   1.0153
 Cp, KJ/(KG)(K)   22.6307  22.5657  22.5031  22.4429  22.3849  22.3291  22.2753  22.2235
 GAMMAs            1.6037   1.6055   1.6073   1.6090   1.6107   1.6123   1.6139   1.6154
 SON VEL,M/SEC     7588.9   7602.1   7615.2   7628.2   7641.0   7653.6   7666.2   7678.6

 TRANSPORT PROPERTIES (GASES ONLY)
   CONDUCTIVITY IN UNITS OF MILLIWATTS/(CM)(K)

 VISC,MILLIPOISE  0.48676  0.48763  0.48850  0.48937  0.49024  0.49111  0.49198  0.49285

  WITH EQUILIBRIUM REACTIONS

 Cp, KJ/(KG)(K)   22.6307  22.5657  22.5031  22.4429  22.3849  22.3291  22.2753  22.2235
 CONDUCTIVITY     16.8105  16.7829  16.7573  16.7336  16.7116  16.6914  16.6728  16.6558
 PRANDTL NUMBER    0.6553   0.6556   0.6560   0.6563   0.6567   0.6570   0.6573   0.6576

  WITH FROZEN REACTIONS

 Cp, KJ/(KG)(K)   20.6199  20.6200  20.6201  20.6202  20.6203  20.6204  20.6205  20.6205
 CONDUCTIVITY     15.0363  15.0637  15.0911  15.1186  15.1460  15.1734  15.2008  15.2283
 PRANDTL NUMBER    0.6675   0.6675   0.6675   0.6674   0.6674   0.6674   0.6674   0.6674

 MOLE FRACTIONS

 *H               0.99851  0.99855  0.99859  0.99863  0.99867  0.99871  0.99874  0.99878
 *H2              0.00149  0.00144  0.00140  0.00136  0.00132  0.00129  0.00125  0.00121

  * THERMODYNAMIC PROPERTIES FITTED TO 20000.K

 NOTE. WEIGHT FRACTION OF FUEL IN TOTAL FUELS AND OF OXIDANT IN TOTAL OXIDANTS









               THERMODYNAMIC EQUILIBRIUM PROPERTIES AT ASSIGNED

                           TEMPERATURE AND PRESSURE

 CASE =                

             REACTANT                    WT FRACTION      ENERGY      TEMP
                                          (SEE NOTE)     KJ/KG-MOL      K  
             H2                           1.0000000         0.000      0.000

 O/F=    0.00000  %FUEL=100.000000  R,EQ.RATIO= 0.000000  PHI,EQ.RATIO= 0.000000

 THERMODYNAMIC PROPERTIES

 P, BAR           0.01200  0.01200  0.01200  0.01200  0.01200  0.01200  0.01320  0.01320
 T, K             4440.00  4450.00  4460.00  4470.00  4480.00  4490.00  4350.00  4360.00
 RHO, KG/CU M    3.2803-5 3.2728-5 3.2653-5 3.2579-5 3.2506-5 3.2432-5 3.6848-5 3.6762-5
 H, KJ/KG        301159.2 301380.7 301601.7 301822.3 302042.4 302262.1 299071.2 299299.8
 U, KJ/KG        264576.6 264714.5 264852.0 264989.0 265125.7 265261.9 263248.2 263392.7
 G, KJ/KG       -612968.4-615027.5-617087.1-619147.2-621207.8-623268.8-591044.8-593091.3
 S, KJ/(KG)(K)   205.8846 205.9344 205.9840 206.0334 206.0826 206.1316 204.6244 204.6769

 M, (1/n)           1.009    1.009    1.009    1.009    1.009    1.009    1.010    1.010
 (dLV/dLP)t      -1.00118 -1.00115 -1.00111 -1.00108 -1.00105 -1.00103 -1.00168 -1.00163
 (dLV/dLT)p        1.0149   1.0144   1.0140   1.0136   1.0132   1.0128   1.0215   1.0209
 Cp, KJ/(KG)(K)   22.1737  22.1257  22.0795  22.0350  21.9921  21.9509  22.9015  22.8272
 GAMMAs            1.6169   1.6183   1.6197   1.6210   1.6223   1.6235   1.5963   1.5984
 SON VEL,M/SEC     7690.9   7703.1   7715.1   7727.0   7738.9   7750.6   7562.1   7575.8

 TRANSPORT PROPERTIES (GASES ONLY)
   CONDUCTIVITY IN UNITS OF MILLIWATTS/(CM)(K)

 VISC,MILLIPOISE  0.49372  0.49459  0.49546  0.49633  0.49720  0.49808  0.48605  0.48691

  WITH EQUILIBRIUM REACTIONS

 Cp, KJ/(KG)(K)   22.1737  22.1257  22.0795  22.0350  21.9921  21.9509  22.9015  22.8272
 CONDUCTIVITY     16.6403  16.6263  16.6137  16.6025  16.5926  16.5839  17.0238  16.9885
 PRANDTL NUMBER    0.6579   0.6582   0.6585   0.6587   0.6590   0.6593   0.6539   0.6543

  WITH FROZEN REACTIONS

 Cp, KJ/(KG)(K)   20.6206  20.6207  20.6208  20.6208  20.6209  20.6210  20.6195  20.6196
 CONDUCTIVITY     15.2557  15.2831  15.3105  15.3379  15.3654  15.3928  15.0113  15.0387
 PRANDTL NUMBER    0.6673   0.6673   0.6673   0.6673   0.6673   0.6672   0.6676   0.6676

 MOLE FRACTIONS

 *H               0.99881  0.99884  0.99888  0.99891  0.99894  0.99896  0.99831  0.99836
 *H2              0.00118  0.00115  0.00112  0.00109  0.00106  0.00103  0.00168  0.00163

  * THERMODYNAMIC PROPERTIES FITTED TO 20000.K

 NOTE. WEIGHT FRACTION OF FUEL IN TOTAL FUELS AND OF OXIDANT IN TOTAL OXIDANTS









               THERMODYNAMIC EQUILIBRIUM PROPERTIES AT ASSIGNED

                           TEMPERATURE AND PRESSURE

 CASE =                

             REACTANT                    WT FRACTION      ENERGY      TEMP
                                          (SEE NOTE)     KJ/KG-MOL      K  
             H2                           1.0000000         0.000      0.000

 O/F=    0.00000  %FUEL=100.000000  R,EQ.RATIO= 0.000000  PHI,EQ.RATIO= 0.000000

 THERMODYNAMIC PROPERTIES

 P, BAR           0.01320  0.01320  0.01320  0.01320  0.01320  0.01320  0.01320  0.01320
 T, K             4370.00  4380.00  4390.00  4400.00  4410.00  4420.00  4430.00  4440.00
 RHO, KG/CU M    3.6676-5 3.6590-5 3.6505-5 3.6421-5 3.6337-5 3.6253-5 3.6170-5 3.6087-5
 H, KJ/KG        299527.7 299755.0 299981.5 300207.4 300432.6 300657.3 300881.4 301104.9
 U, KJ/KG        263536.6 263679.8 263822.4 263964.4 264105.7 264246.6 264386.9 264526.6
 G, KJ/KG       -595138.3-597185.8-599233.9-601282.5-603331.6-605381.2-607431.3-609481.9
 S, KJ/(KG)(K)   204.7291 204.7810 204.8327 204.8841 204.9352 204.9861 205.0367 205.0871

 M, (1/n)           1.010    1.009    1.009    1.009    1.009    1.009    1.009    1.009
 (dLV/dLP)t      -1.00158 -1.00154 -1.00149 -1.00145 -1.00141 -1.00137 -1.00133 -1.00130
 (dLV/dLT)p        1.0202   1.0196   1.0190   1.0184   1.0179   1.0173   1.0168   1.0163
 Cp, KJ/(KG)(K)   22.7557  22.6869  22.6206  22.5568  22.4954  22.4363  22.3793  22.3244
 GAMMAs            1.6003   1.6022   1.6041   1.6059   1.6077   1.6094   1.6110   1.6126
 SON VEL,M/SEC     7589.3   7602.7   7616.0   7629.1   7642.1   7654.9   7667.6   7680.2

 TRANSPORT PROPERTIES (GASES ONLY)
   CONDUCTIVITY IN UNITS OF MILLIWATTS/(CM)(K)

 VISC,MILLIPOISE  0.48777  0.48864  0.48950  0.49037  0.49123  0.49210  0.49297  0.49384

  WITH EQUILIBRIUM REACTIONS

 Cp, KJ/(KG)(K)   22.7557  22.6869  22.6206  22.5568  22.4954  22.4363  22.3793  22.3244
 CONDUCTIVITY     16.9555  16.9246  16.8957  16.8688  16.8438  16.8206  16.7991  16.7793
 PRANDTL NUMBER    0.6546   0.6550   0.6554   0.6557   0.6561   0.6564   0.6567   0.6570

  WITH FROZEN REACTIONS

 Cp, KJ/(KG)(K)   20.6197  20.6198  20.6199  20.6200  20.6201  20.6202  20.6203  20.6204
 CONDUCTIVITY     15.0661  15.0934  15.1208  15.1481  15.1755  15.2029  15.2303  15.2576
 PRANDTL NUMBER    0.6676   0.6676   0.6675   0.6675   0.6675   0.6675   0.6674   0.6674

 MOLE FRACTIONS

 *H               0.99841  0.99845  0.99850  0.99854  0.99858  0.99862  0.99866  0.99869
 *H2              0.00159  0.00154  0.00150  0.00146  0.00141  0.00137  0.00134  0.00130

  * THERMODYNAMIC PROPERTIES FITTED TO 20000.K

 NOTE. WEIGHT FRACTION OF FUEL IN TOTAL FUELS AND OF OXIDANT IN TOTAL OXIDANTS









               THERMODYNAMIC EQUILIBRIUM PROPERTIES AT ASSIGNED

                           TEMPERATURE AND PRESSURE

 CASE =                

             REACTANT                    WT FRACTION      ENERGY      TEMP
                                          (SEE NOTE)     KJ/KG-MOL      K  
             H2                           1.0000000         0.000      0.000

 O/F=    0.00000  %FUEL=100.000000  R,EQ.RATIO= 0.000000  PHI,EQ.RATIO= 0.000000

 THERMODYNAMIC PROPERTIES

 P, BAR           0.01320  0.01320  0.01320  0.01320  0.01320  0.01480  0.01480  0.01480
 T, K             4450.00  4460.00  4470.00  4480.00  4490.00  4350.00  4360.00  4370.00
 RHO, KG/CU M    3.6005-5 3.5923-5 3.5841-5 3.5760-5 3.5679-5 4.1323-5 4.1226-5 4.1129-5
 H, KJ/KG        301327.9 301550.3 301772.3 301993.8 302214.8 298977.8 299209.1 299439.6
 U, KJ/KG        264665.9 264804.7 264943.0 265080.9 265218.3 263162.1 263309.1 263455.4
 G, KJ/KG       -611533.1-613584.7-615636.8-617689.4-619742.5-586946.6-588983.5-591020.9
 S, KJ/(KG)(K)   205.1373 205.1872 205.2369 205.2864 205.3357 203.6608 203.7139 203.7667

 M, (1/n)           1.009    1.009    1.009    1.009    1.009    1.010    1.010    1.010
 (dLV/dLP)t      -1.00126 -1.00122 -1.00119 -1.00116 -1.00113 -1.00188 -1.00182 -1.00177
 (dLV/dLT)p        1.0158   1.0154   1.0149   1.0145   1.0141   1.0241   1.0234   1.0226
 Cp, KJ/(KG)(K)   22.2716  22.2207  22.1717  22.1244  22.0789  23.1720  23.0889  23.0088
 GAMMAs            1.6141   1.6156   1.6171   1.6185   1.6198   1.5892   1.5915   1.5936
 SON VEL,M/SEC     7692.7   7705.0   7717.2   7729.3   7741.3   7544.5   7558.7   7572.6

 TRANSPORT PROPERTIES (GASES ONLY)
   CONDUCTIVITY IN UNITS OF MILLIWATTS/(CM)(K)

 VISC,MILLIPOISE  0.49470  0.49557  0.49644  0.49731  0.49818  0.48625  0.48711  0.48796

  WITH EQUILIBRIUM REACTIONS

 Cp, KJ/(KG)(K)   22.2716  22.2207  22.1717  22.1244  22.0789  23.1720  23.0889  23.0088
 CONDUCTIVITY     16.7612  16.7446  16.7295  16.7158  16.7035  17.2684  17.2256  17.1852
 PRANDTL NUMBER    0.6573   0.6576   0.6579   0.6582   0.6585   0.6525   0.6529   0.6533

  WITH FROZEN REACTIONS

 Cp, KJ/(KG)(K)   20.6205  20.6206  20.6207  20.6207  20.6208  20.6191  20.6192  20.6194
 CONDUCTIVITY     15.2850  15.3124  15.3398  15.3671  15.3945  15.0146  15.0419  15.0692
 PRANDTL NUMBER    0.6674   0.6674   0.6673   0.6673   0.6673   0.6678   0.6677   0.6677

 MOLE FRACTIONS

 *H               0.99873  0.99876  0.99880  0.99883  0.99886  0.99811  0.99816  0.99822
 *H2              0.00126  0.00123  0.00119  0.00116  0.00113  0.00189  0.00183  0.00178

  * THERMODYNAMIC PROPERTIES FITTED TO 20000.K

 NOTE. WEIGHT FRACTION OF FUEL IN TOTAL FUELS AND OF OXIDANT IN TOTAL OXIDANTS









               THERMODYNAMIC EQUILIBRIUM PROPERTIES AT ASSIGNED

                           TEMPERATURE AND PRESSURE

 CASE =                

             REACTANT                    WT FRACTION      ENERGY      TEMP
                                          (SEE NOTE)     KJ/KG-MOL      K  
             H2                           1.0000000         0.000      0.000

 O/F=    0.00000  %FUEL=100.000000  R,EQ.RATIO= 0.000000  PHI,EQ.RATIO= 0.000000

 THERMODYNAMIC PROPERTIES

 P, BAR           0.01480  0.01480  0.01480  0.01480  0.01480  0.01480  0.01480  0.01480
 T, K             4380.00  4390.00  4400.00  4410.00  4420.00  4430.00  4440.00  4450.00
 RHO, KG/CU M    4.1033-5 4.0938-5 4.0843-5 4.0748-5 4.0654-5 4.0561-5 4.0468-5 4.0375-5
 H, KJ/KG        299669.3 299898.3 300126.5 300354.0 300580.8 300807.0 301032.6 301257.5
 U, KJ/KG        263600.9 263745.7 263889.8 264033.3 264176.2 264318.4 264460.1 264601.2
 G, KJ/KG       -593058.8-595097.3-597136.3-599175.8-601215.8-603256.3-605297.3-607338.9
 S, KJ/(KG)(K)   203.8192 203.8714 203.9234 203.9750 204.0264 204.0775 204.1284 204.1790

 M, (1/n)           1.010    1.010    1.010    1.010    1.009    1.009    1.009    1.009
 (dLV/dLP)t      -1.00172 -1.00167 -1.00162 -1.00158 -1.00153 -1.00149 -1.00145 -1.00141
 (dLV/dLT)p        1.0219   1.0213   1.0206   1.0200   1.0194   1.0188   1.0183   1.0177
 Cp, KJ/(KG)(K)   22.9316  22.8574  22.7859  22.7170  22.6507  22.5868  22.5253  22.4660
 GAMMAs            1.5957   1.5977   1.5997   1.6016   1.6035   1.6052   1.6070   1.6087
 SON VEL,M/SEC     7586.5   7600.1   7613.6   7627.0   7640.2   7653.3   7666.3   7679.1

 TRANSPORT PROPERTIES (GASES ONLY)
   CONDUCTIVITY IN UNITS OF MILLIWATTS/(CM)(K)

 VISC,MILLIPOISE  0.48882  0.48968  0.49054  0.49141  0.49227  0.49313  0.49399  0.49486

  WITH EQUILIBRIUM REACTIONS

 Cp, KJ/(KG)(K)   22.9316  22.8574  22.7859  22.7170  22.6507  22.5868  22.5253  22.4660
 CONDUCTIVITY     17.1473  17.1116  17.0781  17.0467  17.0174  16.9900  16.9645  16.9408
 PRANDTL NUMBER    0.6537   0.6541   0.6545   0.6549   0.6552   0.6556   0.6559   0.6563

  WITH FROZEN REACTIONS

 Cp, KJ/(KG)(K)   20.6195  20.6196  20.6197  20.6198  20.6199  20.6200  20.6201  20.6202
 CONDUCTIVITY     15.0964  15.1237  15.1510  15.1783  15.2056  15.2329  15.2602  15.2875
 PRANDTL NUMBER    0.6677   0.6676   0.6676   0.6676   0.6676   0.6675   0.6675   0.6675

 MOLE FRACTIONS

 *H               0.99827  0.99832  0.99836  0.99841  0.99845  0.99850  0.99854  0.99858
 *H2              0.00173  0.00168  0.00163  0.00158  0.00154  0.00150  0.00146  0.00142

  * THERMODYNAMIC PROPERTIES FITTED TO 20000.K

 NOTE. WEIGHT FRACTION OF FUEL IN TOTAL FUELS AND OF OXIDANT IN TOTAL OXIDANTS









               THERMODYNAMIC EQUILIBRIUM PROPERTIES AT ASSIGNED

                           TEMPERATURE AND PRESSURE

 CASE =                

             REACTANT                    WT FRACTION      ENERGY      TEMP
                                          (SEE NOTE)     KJ/KG-MOL      K  
             H2                           1.0000000         0.000      0.000

 O/F=    0.00000  %FUEL=100.000000  R,EQ.RATIO= 0.000000  PHI,EQ.RATIO= 0.000000

 THERMODYNAMIC PROPERTIES

 P, BAR           0.01480  0.01480  0.01480  0.01480  0.01650  0.01650  0.01650  0.01650
 T, K             4460.00  4470.00  4480.00  4490.00  4350.00  4360.00  4370.00  4380.00
 RHO, KG/CU M    4.0283-5 4.0191-5 4.0100-5 4.0009-5 4.6079-5 4.5971-5 4.5863-5 4.5755-5
 H, KJ/KG        301481.9 301705.7 301929.0 302151.7 298878.8 299112.9 299346.1 299578.5
 U, KJ/KG        264741.7 264881.8 265021.3 265160.3 263070.8 263220.4 263369.2 263517.2
 G, KJ/KG       -609380.9-611423.4-613466.5-615510.0-583052.7-585080.4-587108.6-589137.4
 S, KJ/(KG)(K)   204.2293 204.2795 204.3293 204.3790 202.7429 202.7966 202.8501 202.9032

 M, (1/n)           1.009    1.009    1.009    1.009    1.010    1.010    1.010    1.010
 (dLV/dLP)t      -1.00137 -1.00133 -1.00130 -1.00126 -1.00209 -1.00203 -1.00197 -1.00192
 (dLV/dLT)p        1.0172   1.0167   1.0162   1.0158   1.0268   1.0260   1.0252   1.0244
 Cp, KJ/(KG)(K)   22.4088  22.3538  22.3008  22.2497  23.4589  23.3663  23.2771  23.1912
 GAMMAs            1.6103   1.6119   1.6134   1.6149   1.5820   1.5844   1.5867   1.5890
 SON VEL,M/SEC     7691.8   7704.3   7716.7   7729.0   7526.5   7541.1   7555.4   7569.7

 TRANSPORT PROPERTIES (GASES ONLY)
   CONDUCTIVITY IN UNITS OF MILLIWATTS/(CM)(K)

 VISC,MILLIPOISE  0.49572  0.49659  0.49745  0.49832  0.48646  0.48731  0.48817  0.48902

  WITH EQUILIBRIUM REACTIONS

 Cp, KJ/(KG)(K)   22.4088  22.3538  22.3008  22.2497  23.4589  23.3663  23.2771  23.1912
 CONDUCTIVITY     16.9189  16.8986  16.8800  16.8628  17.5277  17.4769  17.4288  17.3834
 PRANDTL NUMBER    0.6566   0.6569   0.6572   0.6575   0.6511   0.6515   0.6520   0.6524

  WITH FROZEN REACTIONS

 Cp, KJ/(KG)(K)   20.6203  20.6204  20.6205  20.6206  20.6187  20.6189  20.6190  20.6191
 CONDUCTIVITY     15.3149  15.3422  15.3695  15.3968  15.0181  15.0453  15.0725  15.0997
 PRANDTL NUMBER    0.6675   0.6674   0.6674   0.6674   0.6679   0.6678   0.6678   0.6678

 MOLE FRACTIONS

 *H               0.99862  0.99865  0.99869  0.99873  0.99789  0.99795  0.99801  0.99807
 *H2              0.00138  0.00134  0.00130  0.00127  0.00210  0.00204  0.00198  0.00193

  * THERMODYNAMIC PROPERTIES FITTED TO 20000.K

 NOTE. WEIGHT FRACTION OF FUEL IN TOTAL FUELS AND OF OXIDANT IN TOTAL OXIDANTS









               THERMODYNAMIC EQUILIBRIUM PROPERTIES AT ASSIGNED

                           TEMPERATURE AND PRESSURE

 CASE =                

             REACTANT                    WT FRACTION      ENERGY      TEMP
                                          (SEE NOTE)     KJ/KG-MOL      K  
             H2                           1.0000000         0.000      0.000

 O/F=    0.00000  %FUEL=100.000000  R,EQ.RATIO= 0.000000  PHI,EQ.RATIO= 0.000000

 THERMODYNAMIC PROPERTIES

 P, BAR           0.01650  0.01650  0.01650  0.01650  0.01650  0.01650  0.01650  0.01650
 T, K             4390.00  4400.00  4410.00  4420.00  4430.00  4440.00  4450.00  4460.00
 RHO, KG/CU M    4.5649-5 4.5542-5 4.5437-5 4.5332-5 4.5227-5 4.5123-5 4.5020-5 4.4917-5
 H, KJ/KG        299810.0 300040.7 300270.6 300499.7 300728.1 300955.9 301182.9 301409.3
 U, KJ/KG        263664.3 263810.8 263956.5 264101.4 264245.8 264389.4 264532.5 264674.9
 G, KJ/KG       -591166.7-593196.5-595226.9-597257.7-599289.1-601321.0-603353.4-605386.3
 S, KJ/(KG)(K)   202.9560 203.0084 203.0606 203.1125 203.1642 203.2155 203.2666 203.3174

 M, (1/n)           1.010    1.010    1.010    1.010    1.010    1.010    1.010    1.009
 (dLV/dLP)t      -1.00186 -1.00181 -1.00176 -1.00171 -1.00166 -1.00162 -1.00157 -1.00153
 (dLV/dLT)p        1.0237   1.0230   1.0223   1.0216   1.0210   1.0203   1.0197   1.0192
 Cp, KJ/(KG)(K)   23.1085  23.0289  22.9521  22.8782  22.8070  22.7384  22.6723  22.6086
 GAMMAs            1.5911   1.5933   1.5953   1.5974   1.5993   1.6012   1.6030   1.6048
 SON VEL,M/SEC     7583.7   7597.7   7611.4   7625.0   7638.5   7651.8   7665.0   7678.0

 TRANSPORT PROPERTIES (GASES ONLY)
   CONDUCTIVITY IN UNITS OF MILLIWATTS/(CM)(K)

 VISC,MILLIPOISE  0.48987  0.49073  0.49159  0.49244  0.49330  0.49416  0.49502  0.49588

  WITH EQUILIBRIUM REACTIONS

 Cp, KJ/(KG)(K)   23.1085  23.0289  22.9521  22.8782  22.8070  22.7384  22.6723  22.6086
 CONDUCTIVITY     17.3406  17.3001  17.2620  17.2262  17.1926  17.1610  17.1315  17.1039
 PRANDTL NUMBER    0.6528   0.6532   0.6536   0.6540   0.6544   0.6548   0.6551   0.6555

  WITH FROZEN REACTIONS

 Cp, KJ/(KG)(K)   20.6193  20.6194  20.6195  20.6196  20.6198  20.6199  20.6200  20.6201
 CONDUCTIVITY     15.1269  15.1541  15.1813  15.2085  15.2358  15.2630  15.2902  15.3175
 PRANDTL NUMBER    0.6677   0.6677   0.6677   0.6677   0.6676   0.6676   0.6676   0.6675

 MOLE FRACTIONS

 *H               0.99812  0.99818  0.99823  0.99828  0.99833  0.99837  0.99842  0.99846
 *H2              0.00187  0.00182  0.00177  0.00172  0.00167  0.00162  0.00158  0.00153

  * THERMODYNAMIC PROPERTIES FITTED TO 20000.K

 NOTE. WEIGHT FRACTION OF FUEL IN TOTAL FUELS AND OF OXIDANT IN TOTAL OXIDANTS









               THERMODYNAMIC EQUILIBRIUM PROPERTIES AT ASSIGNED

                           TEMPERATURE AND PRESSURE

 CASE =                

             REACTANT                    WT FRACTION      ENERGY      TEMP
                                          (SEE NOTE)     KJ/KG-MOL      K  
             H2                           1.0000000         0.000      0.000

 O/F=    0.00000  %FUEL=100.000000  R,EQ.RATIO= 0.000000  PHI,EQ.RATIO= 0.000000

 THERMODYNAMIC PROPERTIES

 P, BAR           0.01650  0.01650  0.01650  0.01800  0.01800  0.01800  0.01800  0.01800
 T, K             4470.00  4480.00  4490.00  4350.00  4360.00  4370.00  4380.00  4390.00
 RHO, KG/CU M    4.4815-5 4.4713-5 4.4611-5 5.0278-5 5.0159-5 5.0041-5 4.9924-5 4.9807-5
 H, KJ/KG        301635.1 301860.3 302084.9 298791.5 299028.1 299263.8 299498.4 299732.2
 U, KJ/KG        264816.8 264958.1 265098.8 262990.3 263142.2 263293.3 263443.4 263592.6
 G, KJ/KG       -607419.8-609453.7-611488.1-579937.3-581957.6-583978.5-585999.9-588021.9
 S, KJ/(KG)(K)   203.3680 203.4183 203.4684 202.0066 202.0610 202.1149 202.1686 202.2219

 M, (1/n)           1.009    1.009    1.009    1.010    1.010    1.010    1.010    1.010
 (dLV/dLP)t      -1.00149 -1.00145 -1.00141 -1.00228 -1.00221 -1.00215 -1.00209 -1.00203
 (dLV/dLT)p        1.0186   1.0181   1.0175   1.0292   1.0283   1.0275   1.0266   1.0258
 Cp, KJ/(KG)(K)   22.5472  22.4880  22.4310  23.7115  23.6106  23.5134  23.4199  23.3297
 GAMMAs            1.6065   1.6082   1.6098   1.5758   1.5783   1.5808   1.5832   1.5855
 SON VEL,M/SEC     7690.9   7703.7   7716.3   7511.1   7526.0   7540.7   7555.3   7569.7

 TRANSPORT PROPERTIES (GASES ONLY)
   CONDUCTIVITY IN UNITS OF MILLIWATTS/(CM)(K)

 VISC,MILLIPOISE  0.49674  0.49761  0.49847  0.48665  0.48750  0.48834  0.48919  0.49004

  WITH EQUILIBRIUM REACTIONS

 Cp, KJ/(KG)(K)   22.5472  22.4880  22.4310  23.7115  23.6106  23.5134  23.4199  23.3297
 CONDUCTIVITY     17.0781  17.0542  17.0319  17.7560  17.6982  17.6434  17.5914  17.5422
 PRANDTL NUMBER    0.6558   0.6562   0.6565   0.6499   0.6504   0.6508   0.6513   0.6517

  WITH FROZEN REACTIONS

 Cp, KJ/(KG)(K)   20.6202  20.6203  20.6204  20.6184  20.6185  20.6187  20.6188  20.6190
 CONDUCTIVITY     15.3447  15.3720  15.3992  15.0212  15.0483  15.0754  15.1025  15.1296
 PRANDTL NUMBER    0.6675   0.6675   0.6675   0.6680   0.6679   0.6679   0.6679   0.6678

 MOLE FRACTIONS

 *H               0.99850  0.99854  0.99858  0.99770  0.99777  0.99783  0.99790  0.99796
 *H2              0.00149  0.00145  0.00141  0.00229  0.00223  0.00216  0.00210  0.00204

  * THERMODYNAMIC PROPERTIES FITTED TO 20000.K

 NOTE. WEIGHT FRACTION OF FUEL IN TOTAL FUELS AND OF OXIDANT IN TOTAL OXIDANTS









               THERMODYNAMIC EQUILIBRIUM PROPERTIES AT ASSIGNED

                           TEMPERATURE AND PRESSURE

 CASE =                

             REACTANT                    WT FRACTION      ENERGY      TEMP
                                          (SEE NOTE)     KJ/KG-MOL      K  
             H2                           1.0000000         0.000      0.000

 O/F=    0.00000  %FUEL=100.000000  R,EQ.RATIO= 0.000000  PHI,EQ.RATIO= 0.000000

 THERMODYNAMIC PROPERTIES

 P, BAR           0.01800  0.01800  0.01800  0.01800  0.01800  0.01800  0.01800  0.01800
 T, K             4400.00  4410.00  4420.00  4430.00  4440.00  4450.00  4460.00  4470.00
 RHO, KG/CU M    4.9691-5 4.9575-5 4.9461-5 4.9346-5 4.9233-5 4.9120-5 4.9007-5 4.8895-5
 H, KJ/KG        299965.0 300197.0 300428.2 300658.6 300888.3 301117.2 301345.3 301572.9
 U, KJ/KG        263741.1 263888.7 264035.6 264181.8 264327.2 264472.0 264616.1 264759.5
 G, KJ/KG       -590044.3-592067.4-594090.9-596115.0-598139.5-600164.6-602190.2-604216.4
 S, KJ/(KG)(K)   202.2749 202.3275 202.3799 202.4320 202.4837 202.5352 202.5865 202.6374

 M, (1/n)           1.010    1.010    1.010    1.010    1.010    1.010    1.010    1.010
 (dLV/dLP)t      -1.00197 -1.00192 -1.00186 -1.00181 -1.00176 -1.00171 -1.00167 -1.00162
 (dLV/dLT)p        1.0250   1.0243   1.0236   1.0229   1.0222   1.0215   1.0209   1.0203
 Cp, KJ/(KG)(K)   23.2429  23.1593  23.0787  23.0011  22.9262  22.8541  22.7847  22.7177
 GAMMAs            1.5878   1.5900   1.5921   1.5942   1.5962   1.5982   1.6001   1.6019
 SON VEL,M/SEC     7583.9   7598.0   7611.9   7625.7   7639.3   7652.8   7666.1   7679.3

 TRANSPORT PROPERTIES (GASES ONLY)
   CONDUCTIVITY IN UNITS OF MILLIWATTS/(CM)(K)

 VISC,MILLIPOISE  0.49089  0.49175  0.49260  0.49346  0.49431  0.49517  0.49602  0.49688

  WITH EQUILIBRIUM REACTIONS

 Cp, KJ/(KG)(K)   23.2429  23.1593  23.0787  23.0011  22.9262  22.8541  22.7847  22.7177
 CONDUCTIVITY     17.4957  17.4517  17.4102  17.3710  17.3341  17.2994  17.2668  17.2363
 PRANDTL NUMBER    0.6522   0.6526   0.6530   0.6534   0.6538   0.6542   0.6545   0.6549

  WITH FROZEN REACTIONS

 Cp, KJ/(KG)(K)   20.6191  20.6192  20.6194  20.6195  20.6196  20.6197  20.6198  20.6199
 CONDUCTIVITY     15.1568  15.1839  15.2111  15.2383  15.2654  15.2926  15.3198  15.3470
 PRANDTL NUMBER    0.6678   0.6678   0.6677   0.6677   0.6677   0.6677   0.6676   0.6676

 MOLE FRACTIONS

 *H               0.99801  0.99807  0.99812  0.99817  0.99822  0.99827  0.99832  0.99837
 *H2              0.00198  0.00193  0.00187  0.00182  0.00177  0.00172  0.00167  0.00163

  * THERMODYNAMIC PROPERTIES FITTED TO 20000.K

 NOTE. WEIGHT FRACTION OF FUEL IN TOTAL FUELS AND OF OXIDANT IN TOTAL OXIDANTS









               THERMODYNAMIC EQUILIBRIUM PROPERTIES AT ASSIGNED

                           TEMPERATURE AND PRESSURE

 CASE =                

             REACTANT                    WT FRACTION      ENERGY      TEMP
                                          (SEE NOTE)     KJ/KG-MOL      K  
             H2                           1.0000000         0.000      0.000

 O/F=    0.00000  %FUEL=100.000000  R,EQ.RATIO= 0.000000  PHI,EQ.RATIO= 0.000000

 THERMODYNAMIC PROPERTIES

 P, BAR           0.01800  0.01800  0.02000  0.02000  0.02000  0.02000  0.02000  0.02000
 T, K             4480.00  4490.00  4350.00  4360.00  4370.00  4380.00  4390.00  4400.00
 RHO, KG/CU M    4.8784-5 4.8673-5 5.5878-5 5.5746-5 5.5614-5 5.5484-5 5.5354-5 5.5224-5
 H, KJ/KG        301799.7 302025.9 298675.4 298915.3 299154.1 299391.9 299628.6 299864.3
 U, KJ/KG        264902.4 265044.6 262883.2 263038.2 263192.2 263345.2 263497.2 263648.3
 G, KJ/KG       -606243.0-608270.1-576165.7-578177.1-580189.1-582201.6-584214.6-586228.2
 S, KJ/(KG)(K)   202.6881 202.7385 201.1129 201.1680 201.2227 201.2770 201.3310 201.3847

 M, (1/n)           1.010    1.009    1.011    1.010    1.010    1.010    1.010    1.010
 (dLV/dLP)t      -1.00158 -1.00153 -1.00253 -1.00245 -1.00238 -1.00232 -1.00225 -1.00219
 (dLV/dLT)p        1.0197   1.0191   1.0324   1.0314   1.0305   1.0295   1.0286   1.0278
 Cp, KJ/(KG)(K)   22.6531  22.5909  24.0475  23.9356  23.8279  23.7241  23.6241  23.5278
 GAMMAs            1.6037   1.6054   1.5679   1.5706   1.5732   1.5757   1.5782   1.5807
 SON VEL,M/SEC     7692.4   7705.3   7491.1   7506.5   7521.6   7536.6   7551.4   7566.1

 TRANSPORT PROPERTIES (GASES ONLY)
   CONDUCTIVITY IN UNITS OF MILLIWATTS/(CM)(K)

 VISC,MILLIPOISE  0.49774  0.49860  0.48690  0.48774  0.48858  0.48942  0.49027  0.49111

  WITH EQUILIBRIUM REACTIONS

 Cp, KJ/(KG)(K)   22.6531  22.5909  24.0475  23.9356  23.8279  23.7241  23.6241  23.5278
 CONDUCTIVITY     17.2077  17.1809  18.0599  17.9927  17.9289  17.8682  17.8106  17.7560
 PRANDTL NUMBER    0.6553   0.6556   0.6483   0.6488   0.6493   0.6498   0.6503   0.6508

  WITH FROZEN REACTIONS

 Cp, KJ/(KG)(K)   20.6200  20.6201  20.6179  20.6181  20.6182  20.6184  20.6186  20.6187
 CONDUCTIVITY     15.3742  15.4014  15.0253  15.0523  15.0793  15.1063  15.1333  15.1604
 PRANDTL NUMBER    0.6676   0.6675   0.6681   0.6681   0.6680   0.6680   0.6680   0.6679

 MOLE FRACTIONS

 *H               0.99841  0.99845  0.99745  0.99752  0.99759  0.99766  0.99773  0.99779
 *H2              0.00158  0.00154  0.00255  0.00247  0.00240  0.00233  0.00227  0.00220

  * THERMODYNAMIC PROPERTIES FITTED TO 20000.K

 NOTE. WEIGHT FRACTION OF FUEL IN TOTAL FUELS AND OF OXIDANT IN TOTAL OXIDANTS









               THERMODYNAMIC EQUILIBRIUM PROPERTIES AT ASSIGNED

                           TEMPERATURE AND PRESSURE

 CASE =                

             REACTANT                    WT FRACTION      ENERGY      TEMP
                                          (SEE NOTE)     KJ/KG-MOL      K  
             H2                           1.0000000         0.000      0.000

 O/F=    0.00000  %FUEL=100.000000  R,EQ.RATIO= 0.000000  PHI,EQ.RATIO= 0.000000

 THERMODYNAMIC PROPERTIES

 P, BAR           0.02000  0.02000  0.02000  0.02000  0.02000  0.02000  0.02000  0.02000
 T, K             4410.00  4420.00  4430.00  4440.00  4450.00  4460.00  4470.00  4480.00
 RHO, KG/CU M    5.5096-5 5.4968-5 5.4840-5 5.4714-5 5.4588-5 5.4463-5 5.4338-5 5.4214-5
 H, KJ/KG        300099.2 300333.1 300566.1 300798.3 301029.6 301260.2 301490.0 301719.1
 U, KJ/KG        263798.6 263948.0 264096.6 264244.4 264391.4 264537.7 264683.3 264828.2
 G, KJ/KG       -588242.3-590256.9-592272.1-594287.8-596304.0-598320.8-600338.0-602355.8
 S, KJ/(KG)(K)   201.4380 201.4909 201.5436 201.5960 201.6480 201.6998 201.7512 201.8024

 M, (1/n)           1.010    1.010    1.010    1.010    1.010    1.010    1.010    1.010
 (dLV/dLP)t      -1.00213 -1.00207 -1.00201 -1.00195 -1.00190 -1.00185 -1.00180 -1.00175
 (dLV/dLT)p        1.0269   1.0261   1.0254   1.0246   1.0239   1.0232   1.0225   1.0218
 Cp, KJ/(KG)(K)   23.4350  23.3455  23.2594  23.1763  23.0963  23.0191  22.9447  22.8730
 GAMMAs            1.5830   1.5853   1.5876   1.5897   1.5919   1.5939   1.5959   1.5978
 SON VEL,M/SEC     7580.6   7594.9   7609.1   7623.1   7636.9   7650.6   7664.2   7677.6

 TRANSPORT PROPERTIES (GASES ONLY)
   CONDUCTIVITY IN UNITS OF MILLIWATTS/(CM)(K)

 VISC,MILLIPOISE  0.49196  0.49281  0.49366  0.49451  0.49536  0.49621  0.49706  0.49792

  WITH EQUILIBRIUM REACTIONS

 Cp, KJ/(KG)(K)   23.4350  23.3455  23.2594  23.1763  23.0963  23.0191  22.9447  22.8730
 CONDUCTIVITY     17.7041  17.6550  17.6085  17.5646  17.5230  17.4838  17.4468  17.4120
 PRANDTL NUMBER    0.6512   0.6516   0.6521   0.6525   0.6529   0.6533   0.6537   0.6541

  WITH FROZEN REACTIONS

 Cp, KJ/(KG)(K)   20.6189  20.6190  20.6191  20.6193  20.6194  20.6195  20.6196  20.6198
 CONDUCTIVITY     15.1874  15.2145  15.2416  15.2687  15.2958  15.3229  15.3500  15.3771
 PRANDTL NUMBER    0.6679   0.6679   0.6678   0.6678   0.6678   0.6677   0.6677   0.6677

 MOLE FRACTIONS

 *H               0.99786  0.99792  0.99797  0.99803  0.99808  0.99814  0.99819  0.99824
 *H2              0.00214  0.00208  0.00202  0.00196  0.00191  0.00186  0.00181  0.00176

  * THERMODYNAMIC PROPERTIES FITTED TO 20000.K

 NOTE. WEIGHT FRACTION OF FUEL IN TOTAL FUELS AND OF OXIDANT IN TOTAL OXIDANTS









               THERMODYNAMIC EQUILIBRIUM PROPERTIES AT ASSIGNED

                           TEMPERATURE AND PRESSURE

 CASE =                

             REACTANT                    WT FRACTION      ENERGY      TEMP
                                          (SEE NOTE)     KJ/KG-MOL      K  
             H2                           1.0000000         0.000      0.000

 O/F=    0.00000  %FUEL=100.000000  R,EQ.RATIO= 0.000000  PHI,EQ.RATIO= 0.000000

 THERMODYNAMIC PROPERTIES

 P, BAR           0.02000
 T, K             4490.00
 RHO, KG/CU M    5.4091-5
 H, KJ/KG        301947.5
 U, KJ/KG        264972.5
 G, KJ/KG       -604374.1
 S, KJ/(KG)(K)   201.8534

 M, (1/n)           1.010
 (dLV/dLP)t      -1.00170
 (dLV/dLT)p        1.0212
 Cp, KJ/(KG)(K)   22.8039
 GAMMAs            1.5997
 SON VEL,M/SEC     7690.9

 TRANSPORT PROPERTIES (GASES ONLY)
   CONDUCTIVITY IN UNITS OF MILLIWATTS/(CM)(K)

 VISC,MILLIPOISE  0.49877

  WITH EQUILIBRIUM REACTIONS

 Cp, KJ/(KG)(K)   22.8039
 CONDUCTIVITY     17.3793
 PRANDTL NUMBER    0.6545

  WITH FROZEN REACTIONS

 Cp, KJ/(KG)(K)   20.6199
 CONDUCTIVITY     15.4042
 PRANDTL NUMBER    0.6676

 MOLE FRACTIONS

 *H               0.99828
 *H2              0.00171

  * THERMODYNAMIC PROPERTIES FITTED TO 20000.K

 NOTE. WEIGHT FRACTION OF FUEL IN TOTAL FUELS AND OF OXIDANT IN TOTAL OXIDANTS



  
