
 *******************************************************************************

         NASA-GLENN CHEMICAL EQUILIBRIUM PROGRAM CEA2, MAY 21, 2004
                   BY  BONNIE MCBRIDE AND SANFORD GORDON
      REFS: NASA RP-1311, PART I, 1994 AND NASA RP-1311, PART II, 1996

 *******************************************************************************



  prob tp ions
  p,bar= 0.0225,0.025,0.028,0.031,0.035,0.039,0.044,0.049,0.054,0.06,0.067,0.074,
 0.0825,0.091,0.1
  t,k= 650,655,660,665,670,675,680,685,690,695,700,705,710,715,720
  
  reac
  na H2                wt%=100.0000
  
  output short
  output siunits
  output transport
  
 end





               THERMODYNAMIC EQUILIBRIUM PROPERTIES AT ASSIGNED

                           TEMPERATURE AND PRESSURE

 CASE =                

             REACTANT                    WT FRACTION      ENERGY      TEMP
                                          (SEE NOTE)     KJ/KG-MOL      K  
             H2                           1.0000000         0.000      0.000

 O/F=    0.00000  %FUEL=100.000000  R,EQ.RATIO= 0.000000  PHI,EQ.RATIO= 0.000000

 THERMODYNAMIC PROPERTIES

 P, BAR           0.02250  0.02250  0.02250  0.02250  0.02250  0.02250  0.02250  0.02250
 T, K              650.00   655.00   660.00   665.00   670.00   675.00   680.00   685.00
 RHO, KG/CU M    8.3926-4 8.3286-4 8.2655-4 8.2033-4 8.1421-4 8.0818-4 8.0224-4 7.9638-4
 H, KJ/KG         5098.48  5171.34  5244.22  5317.11  5390.02  5462.95  5535.90  5608.86
 U, KJ/KG         2417.55  2469.79  2522.05  2574.32  2626.61  2678.92  2731.24  2783.58
 G, KJ/KG        -54544.8 -55003.8 -55463.4 -55923.6 -56384.3 -56845.6 -57307.4 -57769.7
 S, KJ/(KG)(K)    91.7589  91.8705  91.9813  92.0913  92.2005  92.3089  92.4166  92.5235

 M, (1/n)           2.016    2.016    2.016    2.016    2.016    2.016    2.016    2.016
 (dLV/dLP)t      -1.00000 -1.00000 -1.00000 -1.00000 -1.00000 -1.00000 -1.00000 -1.00000
 (dLV/dLT)p        1.0000   1.0000   1.0000   1.0000   1.0000   1.0000   1.0000   1.0000
 Cp, KJ/(KG)(K)   14.5709  14.5741  14.5773  14.5806  14.5840  14.5875  14.5911  14.5947
 GAMMAs            1.3948   1.3947   1.3946   1.3945   1.3943   1.3942   1.3941   1.3939
 SON VEL,M/SEC     1933.8   1941.1   1948.4   1955.7   1962.9   1970.2   1977.3   1984.5

 TRANSPORT PROPERTIES (GASES ONLY)
   CONDUCTIVITY IN UNITS OF MILLIWATTS/(CM)(K)

 VISC,MILLIPOISE  0.15196  0.15277  0.15358  0.15439  0.15520  0.15600  0.15680  0.15761

  WITH EQUILIBRIUM REACTIONS

 Cp, KJ/(KG)(K)   14.5709  14.5741  14.5773  14.5806  14.5840  14.5875  14.5911  14.5947
 CONDUCTIVITY      3.2118   3.2296   3.2473   3.2650   3.2827   3.3003   3.3180   3.3357
 PRANDTL NUMBER    0.6894   0.6894   0.6894   0.6895   0.6895   0.6895   0.6896   0.6896

  WITH FROZEN REACTIONS

 Cp, KJ/(KG)(K)   14.5709  14.5741  14.5773  14.5806  14.5840  14.5875  14.5911  14.5947
 CONDUCTIVITY      3.2118   3.2296   3.2473   3.2650   3.2827   3.3003   3.3180   3.3357
 PRANDTL NUMBER    0.6894   0.6894   0.6894   0.6895   0.6895   0.6895   0.6896   0.6896

 MOLE FRACTIONS

 *H2              1.00000  1.00000  1.00000  1.00000  1.00000  1.00000  1.00000  1.00000

  * THERMODYNAMIC PROPERTIES FITTED TO 20000.K

 NOTE. WEIGHT FRACTION OF FUEL IN TOTAL FUELS AND OF OXIDANT IN TOTAL OXIDANTS









               THERMODYNAMIC EQUILIBRIUM PROPERTIES AT ASSIGNED

                           TEMPERATURE AND PRESSURE

 CASE =                

             REACTANT                    WT FRACTION      ENERGY      TEMP
                                          (SEE NOTE)     KJ/KG-MOL      K  
             H2                           1.0000000         0.000      0.000

 O/F=    0.00000  %FUEL=100.000000  R,EQ.RATIO= 0.000000  PHI,EQ.RATIO= 0.000000

 THERMODYNAMIC PROPERTIES

 P, BAR           0.02250  0.02250  0.02250  0.02250  0.02250  0.02250  0.02250  0.02500
 T, K              690.00   695.00   700.00   705.00   710.00   715.00   720.00   650.00
 RHO, KG/CU M    7.9061-4 7.8492-4 7.7932-4 7.7379-4 7.6834-4 7.6297-4 7.5767-4 9.3251-4
 H, KJ/KG         5681.84  5754.85  5827.87  5900.91  5973.97  6047.05  6120.15  5098.48
 U, KJ/KG         2835.94  2888.32  2940.72  2993.14  3045.58  3098.03  3150.51  2417.55
 G, KJ/KG        -58232.6 -58696.0 -59160.0 -59624.4 -60089.4 -60554.9 -61020.9 -54262.3
 S, KJ/(KG)(K)    92.6297  92.7351  92.8398  92.9437  93.0470  93.1496  93.2515  91.3242

 M, (1/n)           2.016    2.016    2.016    2.016    2.016    2.016    2.016    2.016
 (dLV/dLP)t      -1.00000 -1.00000 -1.00000 -1.00000 -1.00000 -1.00000 -1.00000 -1.00000
 (dLV/dLT)p        1.0000   1.0000   1.0000   1.0000   1.0000   1.0000   1.0000   1.0000
 Cp, KJ/(KG)(K)   14.5984  14.6022  14.6061  14.6100  14.6140  14.6181  14.6223  14.5709
 GAMMAs            1.3938   1.3936   1.3935   1.3934   1.3932   1.3931   1.3929   1.3948
 SON VEL,M/SEC     1991.6   1998.7   2005.8   2012.8   2019.9   2026.9   2033.8   1933.8

 TRANSPORT PROPERTIES (GASES ONLY)
   CONDUCTIVITY IN UNITS OF MILLIWATTS/(CM)(K)

 VISC,MILLIPOISE  0.15840  0.15920  0.16000  0.16080  0.16159  0.16238  0.16317  0.15196

  WITH EQUILIBRIUM REACTIONS

 Cp, KJ/(KG)(K)   14.5984  14.6022  14.6061  14.6100  14.6140  14.6181  14.6223  14.5709
 CONDUCTIVITY      3.3533   3.3709   3.3886   3.4062   3.4238   3.4414   3.4590   3.2119
 PRANDTL NUMBER    0.6896   0.6896   0.6897   0.6897   0.6897   0.6898   0.6898   0.6894

  WITH FROZEN REACTIONS

 Cp, KJ/(KG)(K)   14.5984  14.6022  14.6061  14.6100  14.6140  14.6181  14.6223  14.5709
 CONDUCTIVITY      3.3533   3.3709   3.3886   3.4062   3.4238   3.4414   3.4590   3.2119
 PRANDTL NUMBER    0.6896   0.6896   0.6897   0.6897   0.6897   0.6898   0.6898   0.6894

 MOLE FRACTIONS

 *H2              1.00000  1.00000  1.00000  1.00000  1.00000  1.00000  1.00000  1.00000

  * THERMODYNAMIC PROPERTIES FITTED TO 20000.K

 NOTE. WEIGHT FRACTION OF FUEL IN TOTAL FUELS AND OF OXIDANT IN TOTAL OXIDANTS









               THERMODYNAMIC EQUILIBRIUM PROPERTIES AT ASSIGNED

                           TEMPERATURE AND PRESSURE

 CASE =                

             REACTANT                    WT FRACTION      ENERGY      TEMP
                                          (SEE NOTE)     KJ/KG-MOL      K  
             H2                           1.0000000         0.000      0.000

 O/F=    0.00000  %FUEL=100.000000  R,EQ.RATIO= 0.000000  PHI,EQ.RATIO= 0.000000

 THERMODYNAMIC PROPERTIES

 P, BAR           0.02500  0.02500  0.02500  0.02500  0.02500  0.02500  0.02500  0.02500
 T, K              655.00   660.00   665.00   670.00   675.00   680.00   685.00   690.00
 RHO, KG/CU M    9.2540-4 9.1839-4 9.1148-4 9.0468-4 8.9798-4 8.9137-4 8.8487-4 8.7846-4
 H, KJ/KG         5171.34  5244.21  5317.11  5390.02  5462.95  5535.90  5608.86  5681.84
 U, KJ/KG         2469.79  2522.05  2574.32  2626.61  2678.92  2731.24  2783.58  2835.94
 G, KJ/KG        -54719.1 -55176.6 -55634.6 -56093.2 -56552.3 -57011.9 -57472.1 -57932.8
 S, KJ/(KG)(K)    91.4359  91.5467  91.6567  91.7659  91.8744  91.9820  92.0890  92.1951

 M, (1/n)           2.016    2.016    2.016    2.016    2.016    2.016    2.016    2.016
 (dLV/dLP)t      -1.00000 -1.00000 -1.00000 -1.00000 -1.00000 -1.00000 -1.00000 -1.00000
 (dLV/dLT)p        1.0000   1.0000   1.0000   1.0000   1.0000   1.0000   1.0000   1.0000
 Cp, KJ/(KG)(K)   14.5741  14.5773  14.5806  14.5840  14.5875  14.5911  14.5947  14.5984
 GAMMAs            1.3947   1.3946   1.3945   1.3943   1.3942   1.3941   1.3939   1.3938
 SON VEL,M/SEC     1941.1   1948.4   1955.7   1962.9   1970.2   1977.3   1984.5   1991.6

 TRANSPORT PROPERTIES (GASES ONLY)
   CONDUCTIVITY IN UNITS OF MILLIWATTS/(CM)(K)

 VISC,MILLIPOISE  0.15277  0.15358  0.15439  0.15520  0.15600  0.15680  0.15761  0.15840

  WITH EQUILIBRIUM REACTIONS

 Cp, KJ/(KG)(K)   14.5741  14.5773  14.5806  14.5840  14.5875  14.5911  14.5947  14.5984
 CONDUCTIVITY      3.2296   3.2473   3.2650   3.2827   3.3003   3.3180   3.3357   3.3533
 PRANDTL NUMBER    0.6894   0.6894   0.6895   0.6895   0.6895   0.6896   0.6896   0.6896

  WITH FROZEN REACTIONS

 Cp, KJ/(KG)(K)   14.5741  14.5773  14.5806  14.5840  14.5875  14.5911  14.5947  14.5984
 CONDUCTIVITY      3.2296   3.2473   3.2650   3.2827   3.3003   3.3180   3.3357   3.3533
 PRANDTL NUMBER    0.6894   0.6894   0.6895   0.6895   0.6895   0.6896   0.6896   0.6896

 MOLE FRACTIONS

 *H2              1.00000  1.00000  1.00000  1.00000  1.00000  1.00000  1.00000  1.00000

  * THERMODYNAMIC PROPERTIES FITTED TO 20000.K

 NOTE. WEIGHT FRACTION OF FUEL IN TOTAL FUELS AND OF OXIDANT IN TOTAL OXIDANTS









               THERMODYNAMIC EQUILIBRIUM PROPERTIES AT ASSIGNED

                           TEMPERATURE AND PRESSURE

 CASE =                

             REACTANT                    WT FRACTION      ENERGY      TEMP
                                          (SEE NOTE)     KJ/KG-MOL      K  
             H2                           1.0000000         0.000      0.000

 O/F=    0.00000  %FUEL=100.000000  R,EQ.RATIO= 0.000000  PHI,EQ.RATIO= 0.000000

 THERMODYNAMIC PROPERTIES

 P, BAR           0.02500  0.02500  0.02500  0.02500  0.02500  0.02500  0.02800  0.02800
 T, K              695.00   700.00   705.00   710.00   715.00   720.00   650.00   655.00
 RHO, KG/CU M    8.7214-4 8.6591-4 8.5977-4 8.5371-4 8.4774-4 8.4185-4 1.0444-3 1.0364-3
 H, KJ/KG         5754.85  5827.87  5900.91  5973.97  6047.05  6120.15  5098.48  5171.34
 U, KJ/KG         2888.32  2940.72  2993.14  3045.58  3098.03  3150.51  2417.55  2469.79
 G, KJ/KG        -58394.0 -58855.8 -59318.1 -59780.9 -60244.2 -60708.0 -53958.4 -54413.0
 S, KJ/(KG)(K)    92.3005  92.4052  92.5092  92.6125  92.7150  92.8169  90.8568  90.9684

 M, (1/n)           2.016    2.016    2.016    2.016    2.016    2.016    2.016    2.016
 (dLV/dLP)t      -1.00000 -1.00000 -1.00000 -1.00000 -1.00000 -1.00000 -1.00000 -1.00000
 (dLV/dLT)p        1.0000   1.0000   1.0000   1.0000   1.0000   1.0000   1.0000   1.0000
 Cp, KJ/(KG)(K)   14.6022  14.6061  14.6100  14.6140  14.6181  14.6223  14.5709  14.5741
 GAMMAs            1.3936   1.3935   1.3934   1.3932   1.3931   1.3929   1.3948   1.3947
 SON VEL,M/SEC     1998.7   2005.8   2012.8   2019.9   2026.9   2033.8   1933.8   1941.1

 TRANSPORT PROPERTIES (GASES ONLY)
   CONDUCTIVITY IN UNITS OF MILLIWATTS/(CM)(K)

 VISC,MILLIPOISE  0.15920  0.16000  0.16080  0.16159  0.16238  0.16317  0.15196  0.15277

  WITH EQUILIBRIUM REACTIONS

 Cp, KJ/(KG)(K)   14.6022  14.6061  14.6100  14.6140  14.6181  14.6223  14.5709  14.5741
 CONDUCTIVITY      3.3709   3.3886   3.4062   3.4238   3.4414   3.4590   3.2119   3.2296
 PRANDTL NUMBER    0.6896   0.6897   0.6897   0.6897   0.6898   0.6898   0.6894   0.6894

  WITH FROZEN REACTIONS

 Cp, KJ/(KG)(K)   14.6022  14.6061  14.6100  14.6140  14.6181  14.6223  14.5709  14.5741
 CONDUCTIVITY      3.3709   3.3886   3.4062   3.4238   3.4414   3.4590   3.2119   3.2296
 PRANDTL NUMBER    0.6896   0.6897   0.6897   0.6897   0.6898   0.6898   0.6894   0.6894

 MOLE FRACTIONS

 *H2              1.00000  1.00000  1.00000  1.00000  1.00000  1.00000  1.00000  1.00000

  * THERMODYNAMIC PROPERTIES FITTED TO 20000.K

 NOTE. WEIGHT FRACTION OF FUEL IN TOTAL FUELS AND OF OXIDANT IN TOTAL OXIDANTS









               THERMODYNAMIC EQUILIBRIUM PROPERTIES AT ASSIGNED

                           TEMPERATURE AND PRESSURE

 CASE =                

             REACTANT                    WT FRACTION      ENERGY      TEMP
                                          (SEE NOTE)     KJ/KG-MOL      K  
             H2                           1.0000000         0.000      0.000

 O/F=    0.00000  %FUEL=100.000000  R,EQ.RATIO= 0.000000  PHI,EQ.RATIO= 0.000000

 THERMODYNAMIC PROPERTIES

 P, BAR           0.02800  0.02800  0.02800  0.02800  0.02800  0.02800  0.02800  0.02800
 T, K              660.00   665.00   670.00   675.00   680.00   685.00   690.00   695.00
 RHO, KG/CU M    1.0286-3 1.0209-3 1.0132-3 1.0057-3 9.9834-4 9.9105-4 9.8387-4 9.7679-4
 H, KJ/KG         5244.21  5317.11  5390.02  5462.95  5535.90  5608.86  5681.84  5754.85
 U, KJ/KG         2522.05  2574.32  2626.61  2678.92  2731.24  2783.58  2835.94  2888.32
 G, KJ/KG        -54868.1 -55323.8 -55780.0 -56236.7 -56694.0 -57151.9 -57610.3 -58069.2
 S, KJ/(KG)(K)    91.0793  91.1893  91.2985  91.4069  91.5146  91.6215  91.7277  91.8331

 M, (1/n)           2.016    2.016    2.016    2.016    2.016    2.016    2.016    2.016
 (dLV/dLP)t      -1.00000 -1.00000 -1.00000 -1.00000 -1.00000 -1.00000 -1.00000 -1.00000
 (dLV/dLT)p        1.0000   1.0000   1.0000   1.0000   1.0000   1.0000   1.0000   1.0000
 Cp, KJ/(KG)(K)   14.5773  14.5806  14.5840  14.5875  14.5911  14.5947  14.5984  14.6022
 GAMMAs            1.3946   1.3945   1.3943   1.3942   1.3941   1.3939   1.3938   1.3936
 SON VEL,M/SEC     1948.4   1955.7   1962.9   1970.2   1977.3   1984.5   1991.6   1998.7

 TRANSPORT PROPERTIES (GASES ONLY)
   CONDUCTIVITY IN UNITS OF MILLIWATTS/(CM)(K)

 VISC,MILLIPOISE  0.15358  0.15439  0.15520  0.15600  0.15680  0.15761  0.15840  0.15920

  WITH EQUILIBRIUM REACTIONS

 Cp, KJ/(KG)(K)   14.5773  14.5806  14.5840  14.5875  14.5911  14.5947  14.5984  14.6022
 CONDUCTIVITY      3.2473   3.2650   3.2827   3.3003   3.3180   3.3357   3.3533   3.3709
 PRANDTL NUMBER    0.6894   0.6895   0.6895   0.6895   0.6896   0.6896   0.6896   0.6896

  WITH FROZEN REACTIONS

 Cp, KJ/(KG)(K)   14.5773  14.5806  14.5840  14.5875  14.5911  14.5947  14.5984  14.6022
 CONDUCTIVITY      3.2473   3.2650   3.2827   3.3003   3.3180   3.3357   3.3533   3.3709
 PRANDTL NUMBER    0.6894   0.6895   0.6895   0.6895   0.6896   0.6896   0.6896   0.6896

 MOLE FRACTIONS

 *H2              1.00000  1.00000  1.00000  1.00000  1.00000  1.00000  1.00000  1.00000

  * THERMODYNAMIC PROPERTIES FITTED TO 20000.K

 NOTE. WEIGHT FRACTION OF FUEL IN TOTAL FUELS AND OF OXIDANT IN TOTAL OXIDANTS









               THERMODYNAMIC EQUILIBRIUM PROPERTIES AT ASSIGNED

                           TEMPERATURE AND PRESSURE

 CASE =                

             REACTANT                    WT FRACTION      ENERGY      TEMP
                                          (SEE NOTE)     KJ/KG-MOL      K  
             H2                           1.0000000         0.000      0.000

 O/F=    0.00000  %FUEL=100.000000  R,EQ.RATIO= 0.000000  PHI,EQ.RATIO= 0.000000

 THERMODYNAMIC PROPERTIES

 P, BAR           0.02800  0.02800  0.02800  0.02800  0.02800  0.03100  0.03100  0.03100
 T, K              700.00   705.00   710.00   715.00   720.00   650.00   655.00   660.00
 RHO, KG/CU M    9.6982-4 9.6294-4 9.5616-4 9.4947-4 9.4288-4 1.1563-3 1.1475-3 1.1388-3
 H, KJ/KG         5827.87  5900.91  5973.97  6047.05  6120.15  5098.48  5171.34  5244.21
 U, KJ/KG         2940.72  2993.14  3045.58  3098.03  3150.51  2417.55  2469.79  2522.05
 G, KJ/KG        -58528.6 -58988.5 -59449.0 -59910.0 -60371.5 -53685.6 -54138.0 -54591.0
 S, KJ/(KG)(K)    91.9378  92.0418  92.1450  92.2476  92.3495  90.4370  90.5486  90.6594

 M, (1/n)           2.016    2.016    2.016    2.016    2.016    2.016    2.016    2.016
 (dLV/dLP)t      -1.00000 -1.00000 -1.00000 -1.00000 -1.00000 -1.00000 -1.00000 -1.00000
 (dLV/dLT)p        1.0000   1.0000   1.0000   1.0000   1.0000   1.0000   1.0000   1.0000
 Cp, KJ/(KG)(K)   14.6061  14.6100  14.6140  14.6181  14.6223  14.5709  14.5741  14.5773
 GAMMAs            1.3935   1.3934   1.3932   1.3931   1.3929   1.3948   1.3947   1.3946
 SON VEL,M/SEC     2005.8   2012.8   2019.9   2026.9   2033.8   1933.8   1941.1   1948.4

 TRANSPORT PROPERTIES (GASES ONLY)
   CONDUCTIVITY IN UNITS OF MILLIWATTS/(CM)(K)

 VISC,MILLIPOISE  0.16000  0.16080  0.16159  0.16238  0.16317  0.15196  0.15277  0.15358

  WITH EQUILIBRIUM REACTIONS

 Cp, KJ/(KG)(K)   14.6061  14.6100  14.6140  14.6181  14.6223  14.5709  14.5741  14.5773
 CONDUCTIVITY      3.3886   3.4062   3.4238   3.4414   3.4590   3.2119   3.2296   3.2473
 PRANDTL NUMBER    0.6897   0.6897   0.6897   0.6898   0.6898   0.6894   0.6894   0.6894

  WITH FROZEN REACTIONS

 Cp, KJ/(KG)(K)   14.6061  14.6100  14.6140  14.6181  14.6223  14.5709  14.5741  14.5773
 CONDUCTIVITY      3.3886   3.4062   3.4238   3.4414   3.4590   3.2119   3.2296   3.2473
 PRANDTL NUMBER    0.6897   0.6897   0.6897   0.6898   0.6898   0.6894   0.6894   0.6894

 MOLE FRACTIONS

 *H2              1.00000  1.00000  1.00000  1.00000  1.00000  1.00000  1.00000  1.00000

  * THERMODYNAMIC PROPERTIES FITTED TO 20000.K

 NOTE. WEIGHT FRACTION OF FUEL IN TOTAL FUELS AND OF OXIDANT IN TOTAL OXIDANTS









               THERMODYNAMIC EQUILIBRIUM PROPERTIES AT ASSIGNED

                           TEMPERATURE AND PRESSURE

 CASE =                

             REACTANT                    WT FRACTION      ENERGY      TEMP
                                          (SEE NOTE)     KJ/KG-MOL      K  
             H2                           1.0000000         0.000      0.000

 O/F=    0.00000  %FUEL=100.000000  R,EQ.RATIO= 0.000000  PHI,EQ.RATIO= 0.000000

 THERMODYNAMIC PROPERTIES

 P, BAR           0.03100  0.03100  0.03100  0.03100  0.03100  0.03100  0.03100  0.03100
 T, K              665.00   670.00   675.00   680.00   685.00   690.00   695.00   700.00
 RHO, KG/CU M    1.1302-3 1.1218-3 1.1135-3 1.1053-3 1.0972-3 1.0893-3 1.0814-3 1.0737-3
 H, KJ/KG         5317.11  5390.02  5462.95  5535.90  5608.86  5681.84  5754.85  5827.87
 U, KJ/KG         2574.32  2626.61  2678.92  2731.24  2783.58  2835.94  2888.32  2940.72
 G, KJ/KG        -55044.6 -55498.7 -55953.4 -56408.6 -56864.3 -57320.6 -57777.4 -58234.7
 S, KJ/(KG)(K)    90.7695  90.8787  90.9871  91.0948  91.2017  91.3079  91.4133  91.5180

 M, (1/n)           2.016    2.016    2.016    2.016    2.016    2.016    2.016    2.016
 (dLV/dLP)t      -1.00000 -1.00000 -1.00000 -1.00000 -1.00000 -1.00000 -1.00000 -1.00000
 (dLV/dLT)p        1.0000   1.0000   1.0000   1.0000   1.0000   1.0000   1.0000   1.0000
 Cp, KJ/(KG)(K)   14.5806  14.5840  14.5875  14.5911  14.5947  14.5984  14.6022  14.6061
 GAMMAs            1.3945   1.3943   1.3942   1.3941   1.3939   1.3938   1.3936   1.3935
 SON VEL,M/SEC     1955.7   1962.9   1970.2   1977.3   1984.5   1991.6   1998.7   2005.8

 TRANSPORT PROPERTIES (GASES ONLY)
   CONDUCTIVITY IN UNITS OF MILLIWATTS/(CM)(K)

 VISC,MILLIPOISE  0.15439  0.15520  0.15600  0.15680  0.15761  0.15840  0.15920  0.16000

  WITH EQUILIBRIUM REACTIONS

 Cp, KJ/(KG)(K)   14.5806  14.5840  14.5875  14.5911  14.5947  14.5984  14.6022  14.6061
 CONDUCTIVITY      3.2650   3.2827   3.3003   3.3180   3.3357   3.3533   3.3709   3.3886
 PRANDTL NUMBER    0.6895   0.6895   0.6895   0.6896   0.6896   0.6896   0.6896   0.6897

  WITH FROZEN REACTIONS

 Cp, KJ/(KG)(K)   14.5806  14.5840  14.5875  14.5911  14.5947  14.5984  14.6022  14.6061
 CONDUCTIVITY      3.2650   3.2827   3.3003   3.3180   3.3357   3.3533   3.3709   3.3886
 PRANDTL NUMBER    0.6895   0.6895   0.6895   0.6896   0.6896   0.6896   0.6896   0.6897

 MOLE FRACTIONS

 *H2              1.00000  1.00000  1.00000  1.00000  1.00000  1.00000  1.00000  1.00000

  * THERMODYNAMIC PROPERTIES FITTED TO 20000.K

 NOTE. WEIGHT FRACTION OF FUEL IN TOTAL FUELS AND OF OXIDANT IN TOTAL OXIDANTS









               THERMODYNAMIC EQUILIBRIUM PROPERTIES AT ASSIGNED

                           TEMPERATURE AND PRESSURE

 CASE =                

             REACTANT                    WT FRACTION      ENERGY      TEMP
                                          (SEE NOTE)     KJ/KG-MOL      K  
             H2                           1.0000000         0.000      0.000

 O/F=    0.00000  %FUEL=100.000000  R,EQ.RATIO= 0.000000  PHI,EQ.RATIO= 0.000000

 THERMODYNAMIC PROPERTIES

 P, BAR           0.03100  0.03100  0.03100  0.03100  0.03500  0.03500  0.03500  0.03500
 T, K              705.00   710.00   715.00   720.00   650.00   655.00   660.00   665.00
 RHO, KG/CU M    1.0661-3 1.0586-3 1.0512-3 1.0439-3 1.3055-3 1.2956-3 1.2857-3 1.2761-3
 H, KJ/KG         5900.91  5973.97  6047.05  6120.15  5098.48  5171.34  5244.21  5317.11
 U, KJ/KG         2993.14  3045.58  3098.03  3150.51  2417.55  2469.79  2522.05  2574.32
 G, KJ/KG        -58692.6 -59150.9 -59609.8 -60069.2 -53360.2 -53810.1 -54260.7 -54711.7
 S, KJ/(KG)(K)    91.6220  91.7252  91.8278  91.9297  89.9364  90.0481  90.1589  90.2689

 M, (1/n)           2.016    2.016    2.016    2.016    2.016    2.016    2.016    2.016
 (dLV/dLP)t      -1.00000 -1.00000 -1.00000 -1.00000 -1.00000 -1.00000 -1.00000 -1.00000
 (dLV/dLT)p        1.0000   1.0000   1.0000   1.0000   1.0000   1.0000   1.0000   1.0000
 Cp, KJ/(KG)(K)   14.6100  14.6140  14.6181  14.6223  14.5709  14.5741  14.5773  14.5806
 GAMMAs            1.3934   1.3932   1.3931   1.3929   1.3948   1.3947   1.3946   1.3945
 SON VEL,M/SEC     2012.8   2019.9   2026.9   2033.8   1933.8   1941.1   1948.4   1955.7

 TRANSPORT PROPERTIES (GASES ONLY)
   CONDUCTIVITY IN UNITS OF MILLIWATTS/(CM)(K)

 VISC,MILLIPOISE  0.16080  0.16159  0.16238  0.16317  0.15196  0.15277  0.15358  0.15439

  WITH EQUILIBRIUM REACTIONS

 Cp, KJ/(KG)(K)   14.6100  14.6140  14.6181  14.6223  14.5709  14.5741  14.5773  14.5806
 CONDUCTIVITY      3.4062   3.4238   3.4414   3.4590   3.2119   3.2296   3.2473   3.2650
 PRANDTL NUMBER    0.6897   0.6897   0.6898   0.6898   0.6894   0.6894   0.6894   0.6895

  WITH FROZEN REACTIONS

 Cp, KJ/(KG)(K)   14.6100  14.6140  14.6181  14.6223  14.5709  14.5741  14.5773  14.5806
 CONDUCTIVITY      3.4062   3.4238   3.4414   3.4590   3.2119   3.2296   3.2473   3.2650
 PRANDTL NUMBER    0.6897   0.6897   0.6898   0.6898   0.6894   0.6894   0.6894   0.6895

 MOLE FRACTIONS

 *H2              1.00000  1.00000  1.00000  1.00000  1.00000  1.00000  1.00000  1.00000

  * THERMODYNAMIC PROPERTIES FITTED TO 20000.K

 NOTE. WEIGHT FRACTION OF FUEL IN TOTAL FUELS AND OF OXIDANT IN TOTAL OXIDANTS









               THERMODYNAMIC EQUILIBRIUM PROPERTIES AT ASSIGNED

                           TEMPERATURE AND PRESSURE

 CASE =                

             REACTANT                    WT FRACTION      ENERGY      TEMP
                                          (SEE NOTE)     KJ/KG-MOL      K  
             H2                           1.0000000         0.000      0.000

 O/F=    0.00000  %FUEL=100.000000  R,EQ.RATIO= 0.000000  PHI,EQ.RATIO= 0.000000

 THERMODYNAMIC PROPERTIES

 P, BAR           0.03500  0.03500  0.03500  0.03500  0.03500  0.03500  0.03500  0.03500
 T, K              670.00   675.00   680.00   685.00   690.00   695.00   700.00   705.00
 RHO, KG/CU M    1.2666-3 1.2572-3 1.2479-3 1.2388-3 1.2298-3 1.2210-3 1.2123-3 1.2037-3
 H, KJ/KG         5390.02  5462.95  5535.90  5608.86  5681.84  5754.85  5827.87  5900.91
 U, KJ/KG         2626.61  2678.92  2731.24  2783.58  2835.94  2888.32  2940.72  2993.14
 G, KJ/KG        -55163.3 -55615.5 -56068.2 -56521.4 -56975.2 -57429.5 -57884.3 -58339.7
 S, KJ/(KG)(K)    90.3781  90.4866  90.5943  90.7012  90.8073  90.9127  91.0174  91.1214

 M, (1/n)           2.016    2.016    2.016    2.016    2.016    2.016    2.016    2.016
 (dLV/dLP)t      -1.00000 -1.00000 -1.00000 -1.00000 -1.00000 -1.00000 -1.00000 -1.00000
 (dLV/dLT)p        1.0000   1.0000   1.0000   1.0000   1.0000   1.0000   1.0000   1.0000
 Cp, KJ/(KG)(K)   14.5840  14.5875  14.5911  14.5947  14.5984  14.6022  14.6061  14.6100
 GAMMAs            1.3943   1.3942   1.3941   1.3939   1.3938   1.3936   1.3935   1.3934
 SON VEL,M/SEC     1962.9   1970.2   1977.3   1984.5   1991.6   1998.7   2005.8   2012.8

 TRANSPORT PROPERTIES (GASES ONLY)
   CONDUCTIVITY IN UNITS OF MILLIWATTS/(CM)(K)

 VISC,MILLIPOISE  0.15520  0.15600  0.15680  0.15761  0.15840  0.15920  0.16000  0.16080

  WITH EQUILIBRIUM REACTIONS

 Cp, KJ/(KG)(K)   14.5840  14.5875  14.5911  14.5947  14.5984  14.6022  14.6061  14.6100
 CONDUCTIVITY      3.2827   3.3003   3.3180   3.3357   3.3533   3.3709   3.3886   3.4062
 PRANDTL NUMBER    0.6895   0.6895   0.6896   0.6896   0.6896   0.6896   0.6897   0.6897

  WITH FROZEN REACTIONS

 Cp, KJ/(KG)(K)   14.5840  14.5875  14.5911  14.5947  14.5984  14.6022  14.6061  14.6100
 CONDUCTIVITY      3.2827   3.3003   3.3180   3.3357   3.3533   3.3709   3.3886   3.4062
 PRANDTL NUMBER    0.6895   0.6895   0.6896   0.6896   0.6896   0.6896   0.6897   0.6897

 MOLE FRACTIONS

 *H2              1.00000  1.00000  1.00000  1.00000  1.00000  1.00000  1.00000  1.00000

  * THERMODYNAMIC PROPERTIES FITTED TO 20000.K

 NOTE. WEIGHT FRACTION OF FUEL IN TOTAL FUELS AND OF OXIDANT IN TOTAL OXIDANTS









               THERMODYNAMIC EQUILIBRIUM PROPERTIES AT ASSIGNED

                           TEMPERATURE AND PRESSURE

 CASE =                

             REACTANT                    WT FRACTION      ENERGY      TEMP
                                          (SEE NOTE)     KJ/KG-MOL      K  
             H2                           1.0000000         0.000      0.000

 O/F=    0.00000  %FUEL=100.000000  R,EQ.RATIO= 0.000000  PHI,EQ.RATIO= 0.000000

 THERMODYNAMIC PROPERTIES

 P, BAR           0.03500  0.03500  0.03500  0.03900  0.03900  0.03900  0.03900  0.03900
 T, K              710.00   715.00   720.00   650.00   655.00   660.00   665.00   670.00
 RHO, KG/CU M    1.1952-3 1.1868-3 1.1786-3 1.4547-3 1.4436-3 1.4327-3 1.4219-3 1.4113-3
 H, KJ/KG         5973.97  6047.05  6120.15  5098.48  5171.34  5244.21  5317.11  5390.02
 U, KJ/KG         3045.58  3098.03  3150.51  2417.55  2469.79  2522.05  2574.32  2626.61
 G, KJ/KG        -58795.6 -59251.9 -59708.8 -53070.1 -53517.8 -53966.1 -54414.9 -54864.3
 S, KJ/(KG)(K)    91.2247  91.3272  91.4291  89.4901  89.6017  89.7126  89.8226  89.9318

 M, (1/n)           2.016    2.016    2.016    2.016    2.016    2.016    2.016    2.016
 (dLV/dLP)t      -1.00000 -1.00000 -1.00000 -1.00000 -1.00000 -1.00000 -1.00000 -1.00000
 (dLV/dLT)p        1.0000   1.0000   1.0000   1.0000   1.0000   1.0000   1.0000   1.0000
 Cp, KJ/(KG)(K)   14.6140  14.6181  14.6223  14.5709  14.5741  14.5773  14.5806  14.5840
 GAMMAs            1.3932   1.3931   1.3929   1.3948   1.3947   1.3946   1.3945   1.3943
 SON VEL,M/SEC     2019.9   2026.9   2033.8   1933.8   1941.1   1948.4   1955.7   1962.9

 TRANSPORT PROPERTIES (GASES ONLY)
   CONDUCTIVITY IN UNITS OF MILLIWATTS/(CM)(K)

 VISC,MILLIPOISE  0.16159  0.16238  0.16317  0.15196  0.15277  0.15358  0.15439  0.15520

  WITH EQUILIBRIUM REACTIONS

 Cp, KJ/(KG)(K)   14.6140  14.6181  14.6223  14.5709  14.5741  14.5773  14.5806  14.5840
 CONDUCTIVITY      3.4238   3.4414   3.4590   3.2119   3.2296   3.2473   3.2650   3.2827
 PRANDTL NUMBER    0.6897   0.6898   0.6898   0.6894   0.6894   0.6894   0.6895   0.6895

  WITH FROZEN REACTIONS

 Cp, KJ/(KG)(K)   14.6140  14.6181  14.6223  14.5709  14.5741  14.5773  14.5806  14.5840
 CONDUCTIVITY      3.4238   3.4414   3.4590   3.2119   3.2296   3.2473   3.2650   3.2827
 PRANDTL NUMBER    0.6897   0.6898   0.6898   0.6894   0.6894   0.6894   0.6895   0.6895

 MOLE FRACTIONS

 *H2              1.00000  1.00000  1.00000  1.00000  1.00000  1.00000  1.00000  1.00000

  * THERMODYNAMIC PROPERTIES FITTED TO 20000.K

 NOTE. WEIGHT FRACTION OF FUEL IN TOTAL FUELS AND OF OXIDANT IN TOTAL OXIDANTS









               THERMODYNAMIC EQUILIBRIUM PROPERTIES AT ASSIGNED

                           TEMPERATURE AND PRESSURE

 CASE =                

             REACTANT                    WT FRACTION      ENERGY      TEMP
                                          (SEE NOTE)     KJ/KG-MOL      K  
             H2                           1.0000000         0.000      0.000

 O/F=    0.00000  %FUEL=100.000000  R,EQ.RATIO= 0.000000  PHI,EQ.RATIO= 0.000000

 THERMODYNAMIC PROPERTIES

 P, BAR           0.03900  0.03900  0.03900  0.03900  0.03900  0.03900  0.03900  0.03900
 T, K              675.00   680.00   685.00   690.00   695.00   700.00   705.00   710.00
 RHO, KG/CU M    1.4008-3 1.3905-3 1.3804-3 1.3704-3 1.3605-3 1.3508-3 1.3412-3 1.3318-3
 H, KJ/KG         5462.95  5535.90  5608.86  5681.84  5754.85  5827.87  5900.91  5973.97
 U, KJ/KG         2678.92  2731.24  2783.58  2835.94  2888.32  2940.72  2993.14  3045.58
 G, KJ/KG        -55314.2 -55764.7 -56215.7 -56667.2 -57119.3 -57571.9 -58025.0 -58478.7
 S, KJ/(KG)(K)    90.0403  90.1479  90.2548  90.3610  90.4664  90.5711  90.6751  90.7783

 M, (1/n)           2.016    2.016    2.016    2.016    2.016    2.016    2.016    2.016
 (dLV/dLP)t      -1.00000 -1.00000 -1.00000 -1.00000 -1.00000 -1.00000 -1.00000 -1.00000
 (dLV/dLT)p        1.0000   1.0000   1.0000   1.0000   1.0000   1.0000   1.0000   1.0000
 Cp, KJ/(KG)(K)   14.5875  14.5911  14.5947  14.5984  14.6022  14.6061  14.6100  14.6140
 GAMMAs            1.3942   1.3941   1.3939   1.3938   1.3936   1.3935   1.3934   1.3932
 SON VEL,M/SEC     1970.2   1977.3   1984.5   1991.6   1998.7   2005.8   2012.8   2019.9

 TRANSPORT PROPERTIES (GASES ONLY)
   CONDUCTIVITY IN UNITS OF MILLIWATTS/(CM)(K)

 VISC,MILLIPOISE  0.15600  0.15680  0.15761  0.15840  0.15920  0.16000  0.16080  0.16159

  WITH EQUILIBRIUM REACTIONS

 Cp, KJ/(KG)(K)   14.5875  14.5911  14.5947  14.5984  14.6022  14.6061  14.6100  14.6140
 CONDUCTIVITY      3.3003   3.3180   3.3357   3.3533   3.3709   3.3886   3.4062   3.4238
 PRANDTL NUMBER    0.6895   0.6896   0.6896   0.6896   0.6896   0.6897   0.6897   0.6897

  WITH FROZEN REACTIONS

 Cp, KJ/(KG)(K)   14.5875  14.5911  14.5947  14.5984  14.6022  14.6061  14.6100  14.6140
 CONDUCTIVITY      3.3003   3.3180   3.3357   3.3533   3.3709   3.3886   3.4062   3.4238
 PRANDTL NUMBER    0.6895   0.6896   0.6896   0.6896   0.6896   0.6897   0.6897   0.6897

 MOLE FRACTIONS

 *H2              1.00000  1.00000  1.00000  1.00000  1.00000  1.00000  1.00000  1.00000

  * THERMODYNAMIC PROPERTIES FITTED TO 20000.K

 NOTE. WEIGHT FRACTION OF FUEL IN TOTAL FUELS AND OF OXIDANT IN TOTAL OXIDANTS









               THERMODYNAMIC EQUILIBRIUM PROPERTIES AT ASSIGNED

                           TEMPERATURE AND PRESSURE

 CASE =                

             REACTANT                    WT FRACTION      ENERGY      TEMP
                                          (SEE NOTE)     KJ/KG-MOL      K  
             H2                           1.0000000         0.000      0.000

 O/F=    0.00000  %FUEL=100.000000  R,EQ.RATIO= 0.000000  PHI,EQ.RATIO= 0.000000

 THERMODYNAMIC PROPERTIES

 P, BAR           0.03900  0.03900  0.04400  0.04400  0.04400  0.04400  0.04400  0.04400
 T, K              715.00   720.00   650.00   655.00   660.00   665.00   670.00   675.00
 RHO, KG/CU M    1.3225-3 1.3133-3 1.6412-3 1.6287-3 1.6164-3 1.6042-3 1.5922-3 1.5804-3
 H, KJ/KG         6047.05  6120.15  5098.48  5171.34  5244.21  5317.11  5390.02  5462.95
 U, KJ/KG         3098.03  3150.51  2417.55  2469.79  2522.05  2574.32  2626.61  2678.92
 G, KJ/KG        -58932.8 -59387.5 -52746.7 -53191.9 -53637.7 -54084.1 -54531.0 -54978.4
 S, KJ/(KG)(K)    90.8809  90.9828  88.9926  89.1042  89.2150  89.3251  89.4343  89.5427

 M, (1/n)           2.016    2.016    2.016    2.016    2.016    2.016    2.016    2.016
 (dLV/dLP)t      -1.00000 -1.00000 -1.00000 -1.00000 -1.00000 -1.00000 -1.00000 -1.00000
 (dLV/dLT)p        1.0000   1.0000   1.0000   1.0000   1.0000   1.0000   1.0000   1.0000
 Cp, KJ/(KG)(K)   14.6181  14.6223  14.5709  14.5741  14.5773  14.5806  14.5840  14.5875
 GAMMAs            1.3931   1.3929   1.3948   1.3947   1.3946   1.3945   1.3943   1.3942
 SON VEL,M/SEC     2026.9   2033.8   1933.8   1941.1   1948.4   1955.7   1962.9   1970.2

 TRANSPORT PROPERTIES (GASES ONLY)
   CONDUCTIVITY IN UNITS OF MILLIWATTS/(CM)(K)

 VISC,MILLIPOISE  0.16238  0.16317  0.15196  0.15277  0.15358  0.15439  0.15520  0.15600

  WITH EQUILIBRIUM REACTIONS

 Cp, KJ/(KG)(K)   14.6181  14.6223  14.5709  14.5741  14.5773  14.5806  14.5840  14.5875
 CONDUCTIVITY      3.4414   3.4590   3.2119   3.2296   3.2473   3.2650   3.2827   3.3003
 PRANDTL NUMBER    0.6898   0.6898   0.6894   0.6894   0.6894   0.6895   0.6895   0.6895

  WITH FROZEN REACTIONS

 Cp, KJ/(KG)(K)   14.6181  14.6223  14.5709  14.5741  14.5773  14.5806  14.5840  14.5875
 CONDUCTIVITY      3.4414   3.4590   3.2119   3.2296   3.2473   3.2650   3.2827   3.3003
 PRANDTL NUMBER    0.6898   0.6898   0.6894   0.6894   0.6894   0.6895   0.6895   0.6895

 MOLE FRACTIONS

 *H2              1.00000  1.00000  1.00000  1.00000  1.00000  1.00000  1.00000  1.00000

  * THERMODYNAMIC PROPERTIES FITTED TO 20000.K

 NOTE. WEIGHT FRACTION OF FUEL IN TOTAL FUELS AND OF OXIDANT IN TOTAL OXIDANTS









               THERMODYNAMIC EQUILIBRIUM PROPERTIES AT ASSIGNED

                           TEMPERATURE AND PRESSURE

 CASE =                

             REACTANT                    WT FRACTION      ENERGY      TEMP
                                          (SEE NOTE)     KJ/KG-MOL      K  
             H2                           1.0000000         0.000      0.000

 O/F=    0.00000  %FUEL=100.000000  R,EQ.RATIO= 0.000000  PHI,EQ.RATIO= 0.000000

 THERMODYNAMIC PROPERTIES

 P, BAR           0.04400  0.04400  0.04400  0.04400  0.04400  0.04400  0.04400  0.04400
 T, K              680.00   685.00   690.00   695.00   700.00   705.00   710.00   715.00
 RHO, KG/CU M    1.5688-3 1.5574-3 1.5461-3 1.5350-3 1.5240-3 1.5132-3 1.5025-3 1.4920-3
 H, KJ/KG         5535.90  5608.86  5681.84  5754.85  5827.87  5900.91  5973.97  6047.05
 U, KJ/KG         2731.24  2783.58  2835.94  2888.32  2940.72  2993.14  3045.58  3098.03
 G, KJ/KG        -55426.4 -55874.9 -56323.9 -56773.5 -57223.6 -57674.3 -58125.4 -58577.1
 S, KJ/(KG)(K)    89.6504  89.7573  89.8635  89.9689  90.0736  90.1775  90.2808  90.3834

 M, (1/n)           2.016    2.016    2.016    2.016    2.016    2.016    2.016    2.016
 (dLV/dLP)t      -1.00000 -1.00000 -1.00000 -1.00000 -1.00000 -1.00000 -1.00000 -1.00000
 (dLV/dLT)p        1.0000   1.0000   1.0000   1.0000   1.0000   1.0000   1.0000   1.0000
 Cp, KJ/(KG)(K)   14.5911  14.5947  14.5984  14.6022  14.6061  14.6100  14.6140  14.6181
 GAMMAs            1.3941   1.3939   1.3938   1.3936   1.3935   1.3934   1.3932   1.3931
 SON VEL,M/SEC     1977.3   1984.5   1991.6   1998.7   2005.8   2012.8   2019.9   2026.9

 TRANSPORT PROPERTIES (GASES ONLY)
   CONDUCTIVITY IN UNITS OF MILLIWATTS/(CM)(K)

 VISC,MILLIPOISE  0.15680  0.15761  0.15840  0.15920  0.16000  0.16080  0.16159  0.16238

  WITH EQUILIBRIUM REACTIONS

 Cp, KJ/(KG)(K)   14.5911  14.5947  14.5984  14.6022  14.6061  14.6100  14.6140  14.6181
 CONDUCTIVITY      3.3180   3.3357   3.3533   3.3709   3.3886   3.4062   3.4238   3.4414
 PRANDTL NUMBER    0.6896   0.6896   0.6896   0.6896   0.6897   0.6897   0.6897   0.6898

  WITH FROZEN REACTIONS

 Cp, KJ/(KG)(K)   14.5911  14.5947  14.5984  14.6022  14.6061  14.6100  14.6140  14.6181
 CONDUCTIVITY      3.3180   3.3357   3.3533   3.3709   3.3886   3.4062   3.4238   3.4414
 PRANDTL NUMBER    0.6896   0.6896   0.6896   0.6896   0.6897   0.6897   0.6897   0.6898

 MOLE FRACTIONS

 *H2              1.00000  1.00000  1.00000  1.00000  1.00000  1.00000  1.00000  1.00000

  * THERMODYNAMIC PROPERTIES FITTED TO 20000.K

 NOTE. WEIGHT FRACTION OF FUEL IN TOTAL FUELS AND OF OXIDANT IN TOTAL OXIDANTS









               THERMODYNAMIC EQUILIBRIUM PROPERTIES AT ASSIGNED

                           TEMPERATURE AND PRESSURE

 CASE =                

             REACTANT                    WT FRACTION      ENERGY      TEMP
                                          (SEE NOTE)     KJ/KG-MOL      K  
             H2                           1.0000000         0.000      0.000

 O/F=    0.00000  %FUEL=100.000000  R,EQ.RATIO= 0.000000  PHI,EQ.RATIO= 0.000000

 THERMODYNAMIC PROPERTIES

 P, BAR           0.04400  0.04900  0.04900  0.04900  0.04900  0.04900  0.04900  0.04900
 T, K              720.00   650.00   655.00   660.00   665.00   670.00   675.00   680.00
 RHO, KG/CU M    1.4817-3 1.8277-3 1.8138-3 1.8000-3 1.7865-3 1.7732-3 1.7600-3 1.7471-3
 H, KJ/KG         6120.15  5098.48  5171.34  5244.21  5317.11  5390.02  5462.95  5535.90
 U, KJ/KG         3150.51  2417.55  2469.79  2522.05  2574.32  2626.61  2678.92  2731.24
 G, KJ/KG        -59029.2 -52458.2 -52901.2 -53344.7 -53788.8 -54233.5 -54678.7 -55124.5
 S, KJ/(KG)(K)    90.4853  88.5487  88.6603  88.7711  88.8811  88.9904  89.0988  89.2065

 M, (1/n)           2.016    2.016    2.016    2.016    2.016    2.016    2.016    2.016
 (dLV/dLP)t      -1.00000 -1.00000 -1.00000 -1.00000 -1.00000 -1.00000 -1.00000 -1.00000
 (dLV/dLT)p        1.0000   1.0000   1.0000   1.0000   1.0000   1.0000   1.0000   1.0000
 Cp, KJ/(KG)(K)   14.6223  14.5709  14.5741  14.5773  14.5806  14.5840  14.5875  14.5911
 GAMMAs            1.3929   1.3948   1.3947   1.3946   1.3945   1.3943   1.3942   1.3941
 SON VEL,M/SEC     2033.8   1933.8   1941.1   1948.4   1955.7   1962.9   1970.2   1977.3

 TRANSPORT PROPERTIES (GASES ONLY)
   CONDUCTIVITY IN UNITS OF MILLIWATTS/(CM)(K)

 VISC,MILLIPOISE  0.16317  0.15196  0.15277  0.15358  0.15439  0.15520  0.15600  0.15680

  WITH EQUILIBRIUM REACTIONS

 Cp, KJ/(KG)(K)   14.6223  14.5709  14.5741  14.5773  14.5806  14.5840  14.5875  14.5911
 CONDUCTIVITY      3.4590   3.2119   3.2296   3.2473   3.2650   3.2827   3.3003   3.3180
 PRANDTL NUMBER    0.6898   0.6894   0.6894   0.6894   0.6895   0.6895   0.6895   0.6896

  WITH FROZEN REACTIONS

 Cp, KJ/(KG)(K)   14.6223  14.5709  14.5741  14.5773  14.5806  14.5840  14.5875  14.5911
 CONDUCTIVITY      3.4590   3.2119   3.2296   3.2473   3.2650   3.2827   3.3003   3.3180
 PRANDTL NUMBER    0.6898   0.6894   0.6894   0.6894   0.6895   0.6895   0.6895   0.6896

 MOLE FRACTIONS

 *H2              1.00000  1.00000  1.00000  1.00000  1.00000  1.00000  1.00000  1.00000

  * THERMODYNAMIC PROPERTIES FITTED TO 20000.K

 NOTE. WEIGHT FRACTION OF FUEL IN TOTAL FUELS AND OF OXIDANT IN TOTAL OXIDANTS









               THERMODYNAMIC EQUILIBRIUM PROPERTIES AT ASSIGNED

                           TEMPERATURE AND PRESSURE

 CASE =                

             REACTANT                    WT FRACTION      ENERGY      TEMP
                                          (SEE NOTE)     KJ/KG-MOL      K  
             H2                           1.0000000         0.000      0.000

 O/F=    0.00000  %FUEL=100.000000  R,EQ.RATIO= 0.000000  PHI,EQ.RATIO= 0.000000

 THERMODYNAMIC PROPERTIES

 P, BAR           0.04900  0.04900  0.04900  0.04900  0.04900  0.04900  0.04900  0.04900
 T, K              685.00   690.00   695.00   700.00   705.00   710.00   715.00   720.00
 RHO, KG/CU M    1.7343-3 1.7218-3 1.7094-3 1.6972-3 1.6851-3 1.6733-3 1.6616-3 1.6500-3
 H, KJ/KG         5608.86  5681.84  5754.85  5827.87  5900.91  5973.97  6047.05  6120.15
 U, KJ/KG         2783.58  2835.94  2888.32  2940.72  2993.14  3045.58  3098.03  3150.51
 G, KJ/KG        -55570.8 -56017.6 -56465.0 -56912.9 -57361.3 -57810.2 -58259.7 -58709.6
 S, KJ/(KG)(K)    89.3134  89.4195  89.5250  89.6297  89.7336  89.8369  89.9395  90.0413

 M, (1/n)           2.016    2.016    2.016    2.016    2.016    2.016    2.016    2.016
 (dLV/dLP)t      -1.00000 -1.00000 -1.00000 -1.00000 -1.00000 -1.00000 -1.00000 -1.00000
 (dLV/dLT)p        1.0000   1.0000   1.0000   1.0000   1.0000   1.0000   1.0000   1.0000
 Cp, KJ/(KG)(K)   14.5947  14.5984  14.6022  14.6061  14.6100  14.6140  14.6181  14.6223
 GAMMAs            1.3939   1.3938   1.3936   1.3935   1.3934   1.3932   1.3931   1.3929
 SON VEL,M/SEC     1984.5   1991.6   1998.7   2005.8   2012.8   2019.9   2026.9   2033.8

 TRANSPORT PROPERTIES (GASES ONLY)
   CONDUCTIVITY IN UNITS OF MILLIWATTS/(CM)(K)

 VISC,MILLIPOISE  0.15761  0.15840  0.15920  0.16000  0.16080  0.16159  0.16238  0.16317

  WITH EQUILIBRIUM REACTIONS

 Cp, KJ/(KG)(K)   14.5947  14.5984  14.6022  14.6061  14.6100  14.6140  14.6181  14.6223
 CONDUCTIVITY      3.3357   3.3533   3.3709   3.3886   3.4062   3.4238   3.4414   3.4590
 PRANDTL NUMBER    0.6896   0.6896   0.6896   0.6897   0.6897   0.6897   0.6898   0.6898

  WITH FROZEN REACTIONS

 Cp, KJ/(KG)(K)   14.5947  14.5984  14.6022  14.6061  14.6100  14.6140  14.6181  14.6223
 CONDUCTIVITY      3.3357   3.3533   3.3709   3.3886   3.4062   3.4238   3.4414   3.4590
 PRANDTL NUMBER    0.6896   0.6896   0.6896   0.6897   0.6897   0.6897   0.6898   0.6898

 MOLE FRACTIONS

 *H2              1.00000  1.00000  1.00000  1.00000  1.00000  1.00000  1.00000  1.00000

  * THERMODYNAMIC PROPERTIES FITTED TO 20000.K

 NOTE. WEIGHT FRACTION OF FUEL IN TOTAL FUELS AND OF OXIDANT IN TOTAL OXIDANTS









               THERMODYNAMIC EQUILIBRIUM PROPERTIES AT ASSIGNED

                           TEMPERATURE AND PRESSURE

 CASE =                

             REACTANT                    WT FRACTION      ENERGY      TEMP
                                          (SEE NOTE)     KJ/KG-MOL      K  
             H2                           1.0000000         0.000      0.000

 O/F=    0.00000  %FUEL=100.000000  R,EQ.RATIO= 0.000000  PHI,EQ.RATIO= 0.000000

 THERMODYNAMIC PROPERTIES

 P, BAR           0.05400  0.05400  0.05400  0.05400  0.05400  0.05400  0.05400  0.05400
 T, K              650.00   655.00   660.00   665.00   670.00   675.00   680.00   685.00
 RHO, KG/CU M    2.0142-3 1.9989-3 1.9837-3 1.9688-3 1.9541-3 1.9396-3 1.9254-3 1.9113-3
 H, KJ/KG         5098.48  5171.34  5244.21  5317.11  5390.02  5462.95  5535.90  5608.86
 U, KJ/KG         2417.55  2469.79  2522.05  2574.32  2626.61  2678.92  2731.24  2783.58
 G, KJ/KG        -52197.7 -52638.7 -53080.2 -53522.3 -53965.0 -54408.2 -54852.0 -55296.3
 S, KJ/(KG)(K)    88.1479  88.2595  88.3704  88.4804  88.5896  88.6981  88.8057  88.9126

 M, (1/n)           2.016    2.016    2.016    2.016    2.016    2.016    2.016    2.016
 (dLV/dLP)t      -1.00000 -1.00000 -1.00000 -1.00000 -1.00000 -1.00000 -1.00000 -1.00000
 (dLV/dLT)p        1.0000   1.0000   1.0000   1.0000   1.0000   1.0000   1.0000   1.0000
 Cp, KJ/(KG)(K)   14.5709  14.5741  14.5773  14.5806  14.5840  14.5875  14.5911  14.5947
 GAMMAs            1.3948   1.3947   1.3946   1.3945   1.3943   1.3942   1.3941   1.3939
 SON VEL,M/SEC     1933.8   1941.1   1948.4   1955.7   1962.9   1970.2   1977.3   1984.5

 TRANSPORT PROPERTIES (GASES ONLY)
   CONDUCTIVITY IN UNITS OF MILLIWATTS/(CM)(K)

 VISC,MILLIPOISE  0.15196  0.15277  0.15358  0.15439  0.15520  0.15600  0.15680  0.15761

  WITH EQUILIBRIUM REACTIONS

 Cp, KJ/(KG)(K)   14.5709  14.5741  14.5773  14.5806  14.5840  14.5875  14.5911  14.5947
 CONDUCTIVITY      3.2119   3.2296   3.2473   3.2650   3.2827   3.3003   3.3180   3.3357
 PRANDTL NUMBER    0.6894   0.6894   0.6894   0.6895   0.6895   0.6895   0.6896   0.6896

  WITH FROZEN REACTIONS

 Cp, KJ/(KG)(K)   14.5709  14.5741  14.5773  14.5806  14.5840  14.5875  14.5911  14.5947
 CONDUCTIVITY      3.2119   3.2296   3.2473   3.2650   3.2827   3.3003   3.3180   3.3357
 PRANDTL NUMBER    0.6894   0.6894   0.6894   0.6895   0.6895   0.6895   0.6896   0.6896

 MOLE FRACTIONS

 *H2              1.00000  1.00000  1.00000  1.00000  1.00000  1.00000  1.00000  1.00000

  * THERMODYNAMIC PROPERTIES FITTED TO 20000.K

 NOTE. WEIGHT FRACTION OF FUEL IN TOTAL FUELS AND OF OXIDANT IN TOTAL OXIDANTS









               THERMODYNAMIC EQUILIBRIUM PROPERTIES AT ASSIGNED

                           TEMPERATURE AND PRESSURE

 CASE =                

             REACTANT                    WT FRACTION      ENERGY      TEMP
                                          (SEE NOTE)     KJ/KG-MOL      K  
             H2                           1.0000000         0.000      0.000

 O/F=    0.00000  %FUEL=100.000000  R,EQ.RATIO= 0.000000  PHI,EQ.RATIO= 0.000000

 THERMODYNAMIC PROPERTIES

 P, BAR           0.05400  0.05400  0.05400  0.05400  0.05400  0.05400  0.05400  0.06000
 T, K              690.00   695.00   700.00   705.00   710.00   715.00   720.00   650.00
 RHO, KG/CU M    1.8975-3 1.8838-3 1.8704-3 1.8571-3 1.8440-3 1.8311-3 1.8184-3 2.2380-3
 H, KJ/KG         5681.84  5754.85  5827.87  5900.91  5973.97  6047.05  6120.15  5098.48
 U, KJ/KG         2835.94  2888.32  2940.72  2993.14  3045.58  3098.03  3150.51  2417.55
 G, KJ/KG        -55741.1 -56186.5 -56632.4 -57078.8 -57525.7 -57973.1 -58421.1 -51915.2
 S, KJ/(KG)(K)    89.0188  89.1242  89.2289  89.3329  89.4361  89.5387  89.6406  87.7133

 M, (1/n)           2.016    2.016    2.016    2.016    2.016    2.016    2.016    2.016
 (dLV/dLP)t      -1.00000 -1.00000 -1.00000 -1.00000 -1.00000 -1.00000 -1.00000 -1.00000
 (dLV/dLT)p        1.0000   1.0000   1.0000   1.0000   1.0000   1.0000   1.0000   1.0000
 Cp, KJ/(KG)(K)   14.5984  14.6022  14.6061  14.6100  14.6140  14.6181  14.6223  14.5709
 GAMMAs            1.3938   1.3936   1.3935   1.3934   1.3932   1.3931   1.3929   1.3948
 SON VEL,M/SEC     1991.6   1998.7   2005.8   2012.8   2019.9   2026.9   2033.8   1933.8

 TRANSPORT PROPERTIES (GASES ONLY)
   CONDUCTIVITY IN UNITS OF MILLIWATTS/(CM)(K)

 VISC,MILLIPOISE  0.15840  0.15920  0.16000  0.16080  0.16159  0.16238  0.16317  0.15196

  WITH EQUILIBRIUM REACTIONS

 Cp, KJ/(KG)(K)   14.5984  14.6022  14.6061  14.6100  14.6140  14.6181  14.6223  14.5709
 CONDUCTIVITY      3.3533   3.3709   3.3886   3.4062   3.4238   3.4414   3.4590   3.2119
 PRANDTL NUMBER    0.6896   0.6896   0.6897   0.6897   0.6897   0.6898   0.6898   0.6894

  WITH FROZEN REACTIONS

 Cp, KJ/(KG)(K)   14.5984  14.6022  14.6061  14.6100  14.6140  14.6181  14.6223  14.5709
 CONDUCTIVITY      3.3533   3.3709   3.3886   3.4062   3.4238   3.4414   3.4590   3.2119
 PRANDTL NUMBER    0.6896   0.6896   0.6897   0.6897   0.6897   0.6898   0.6898   0.6894

 MOLE FRACTIONS

 *H2              1.00000  1.00000  1.00000  1.00000  1.00000  1.00000  1.00000  1.00000

  * THERMODYNAMIC PROPERTIES FITTED TO 20000.K

 NOTE. WEIGHT FRACTION OF FUEL IN TOTAL FUELS AND OF OXIDANT IN TOTAL OXIDANTS









               THERMODYNAMIC EQUILIBRIUM PROPERTIES AT ASSIGNED

                           TEMPERATURE AND PRESSURE

 CASE =                

             REACTANT                    WT FRACTION      ENERGY      TEMP
                                          (SEE NOTE)     KJ/KG-MOL      K  
             H2                           1.0000000         0.000      0.000

 O/F=    0.00000  %FUEL=100.000000  R,EQ.RATIO= 0.000000  PHI,EQ.RATIO= 0.000000

 THERMODYNAMIC PROPERTIES

 P, BAR           0.06000  0.06000  0.06000  0.06000  0.06000  0.06000  0.06000  0.06000
 T, K              655.00   660.00   665.00   670.00   675.00   680.00   685.00   690.00
 RHO, KG/CU M    2.2210-3 2.2041-3 2.1876-3 2.1712-3 2.1551-3 2.1393-3 2.1237-3 2.1083-3
 H, KJ/KG         5171.34  5244.21  5317.11  5390.02  5462.95  5535.90  5608.86  5681.84
 U, KJ/KG         2469.79  2522.05  2574.32  2626.61  2678.92  2731.24  2783.58  2835.94
 G, KJ/KG        -52354.0 -52793.4 -53233.4 -53673.9 -54114.9 -54556.5 -54998.6 -55441.3
 S, KJ/(KG)(K)    87.8250  87.9358  88.0458  88.1551  88.2635  88.3712  88.4781  88.5842

 M, (1/n)           2.016    2.016    2.016    2.016    2.016    2.016    2.016    2.016
 (dLV/dLP)t      -1.00000 -1.00000 -1.00000 -1.00000 -1.00000 -1.00000 -1.00000 -1.00000
 (dLV/dLT)p        1.0000   1.0000   1.0000   1.0000   1.0000   1.0000   1.0000   1.0000
 Cp, KJ/(KG)(K)   14.5741  14.5773  14.5806  14.5840  14.5875  14.5911  14.5947  14.5984
 GAMMAs            1.3947   1.3946   1.3945   1.3943   1.3942   1.3941   1.3939   1.3938
 SON VEL,M/SEC     1941.1   1948.4   1955.7   1962.9   1970.2   1977.3   1984.5   1991.6

 TRANSPORT PROPERTIES (GASES ONLY)
   CONDUCTIVITY IN UNITS OF MILLIWATTS/(CM)(K)

 VISC,MILLIPOISE  0.15277  0.15358  0.15439  0.15520  0.15600  0.15680  0.15761  0.15840

  WITH EQUILIBRIUM REACTIONS

 Cp, KJ/(KG)(K)   14.5741  14.5773  14.5806  14.5840  14.5875  14.5911  14.5947  14.5984
 CONDUCTIVITY      3.2296   3.2473   3.2650   3.2827   3.3003   3.3180   3.3357   3.3533
 PRANDTL NUMBER    0.6894   0.6894   0.6895   0.6895   0.6895   0.6896   0.6896   0.6896

  WITH FROZEN REACTIONS

 Cp, KJ/(KG)(K)   14.5741  14.5773  14.5806  14.5840  14.5875  14.5911  14.5947  14.5984
 CONDUCTIVITY      3.2296   3.2473   3.2650   3.2827   3.3003   3.3180   3.3357   3.3533
 PRANDTL NUMBER    0.6894   0.6894   0.6895   0.6895   0.6895   0.6896   0.6896   0.6896

 MOLE FRACTIONS

 *H2              1.00000  1.00000  1.00000  1.00000  1.00000  1.00000  1.00000  1.00000

  * THERMODYNAMIC PROPERTIES FITTED TO 20000.K

 NOTE. WEIGHT FRACTION OF FUEL IN TOTAL FUELS AND OF OXIDANT IN TOTAL OXIDANTS









               THERMODYNAMIC EQUILIBRIUM PROPERTIES AT ASSIGNED

                           TEMPERATURE AND PRESSURE

 CASE =                

             REACTANT                    WT FRACTION      ENERGY      TEMP
                                          (SEE NOTE)     KJ/KG-MOL      K  
             H2                           1.0000000         0.000      0.000

 O/F=    0.00000  %FUEL=100.000000  R,EQ.RATIO= 0.000000  PHI,EQ.RATIO= 0.000000

 THERMODYNAMIC PROPERTIES

 P, BAR           0.06000  0.06000  0.06000  0.06000  0.06000  0.06000  0.06700  0.06700
 T, K              695.00   700.00   705.00   710.00   715.00   720.00   650.00   655.00
 RHO, KG/CU M    2.0931-3 2.0782-3 2.0634-3 2.0489-3 2.0346-3 2.0205-3 2.4991-3 2.4801-3
 H, KJ/KG         5754.85  5827.87  5900.91  5973.97  6047.05  6120.15  5098.48  5171.34
 U, KJ/KG         2888.32  2940.72  2993.14  3045.58  3098.03  3150.51  2417.55  2469.79
 G, KJ/KG        -55884.5 -56328.2 -56772.4 -57217.2 -57662.4 -58108.2 -51619.4 -52055.9
 S, KJ/(KG)(K)    88.6897  88.7943  88.8983  89.0016  89.1041  89.2060  87.2582  87.3698

 M, (1/n)           2.016    2.016    2.016    2.016    2.016    2.016    2.016    2.016
 (dLV/dLP)t      -1.00000 -1.00000 -1.00000 -1.00000 -1.00000 -1.00000 -1.00000 -1.00000
 (dLV/dLT)p        1.0000   1.0000   1.0000   1.0000   1.0000   1.0000   1.0000   1.0000
 Cp, KJ/(KG)(K)   14.6022  14.6061  14.6100  14.6140  14.6181  14.6223  14.5709  14.5741
 GAMMAs            1.3936   1.3935   1.3934   1.3932   1.3931   1.3929   1.3948   1.3947
 SON VEL,M/SEC     1998.7   2005.8   2012.8   2019.9   2026.9   2033.8   1933.8   1941.1

 TRANSPORT PROPERTIES (GASES ONLY)
   CONDUCTIVITY IN UNITS OF MILLIWATTS/(CM)(K)

 VISC,MILLIPOISE  0.15920  0.16000  0.16080  0.16159  0.16238  0.16317  0.15196  0.15277

  WITH EQUILIBRIUM REACTIONS

 Cp, KJ/(KG)(K)   14.6022  14.6061  14.6100  14.6140  14.6181  14.6223  14.5709  14.5741
 CONDUCTIVITY      3.3709   3.3886   3.4062   3.4238   3.4414   3.4590   3.2119   3.2296
 PRANDTL NUMBER    0.6896   0.6897   0.6897   0.6897   0.6898   0.6898   0.6894   0.6894

  WITH FROZEN REACTIONS

 Cp, KJ/(KG)(K)   14.6022  14.6061  14.6100  14.6140  14.6181  14.6223  14.5709  14.5741
 CONDUCTIVITY      3.3709   3.3886   3.4062   3.4238   3.4414   3.4590   3.2119   3.2296
 PRANDTL NUMBER    0.6896   0.6897   0.6897   0.6897   0.6898   0.6898   0.6894   0.6894

 MOLE FRACTIONS

 *H2              1.00000  1.00000  1.00000  1.00000  1.00000  1.00000  1.00000  1.00000

  * THERMODYNAMIC PROPERTIES FITTED TO 20000.K

 NOTE. WEIGHT FRACTION OF FUEL IN TOTAL FUELS AND OF OXIDANT IN TOTAL OXIDANTS









               THERMODYNAMIC EQUILIBRIUM PROPERTIES AT ASSIGNED

                           TEMPERATURE AND PRESSURE

 CASE =                

             REACTANT                    WT FRACTION      ENERGY      TEMP
                                          (SEE NOTE)     KJ/KG-MOL      K  
             H2                           1.0000000         0.000      0.000

 O/F=    0.00000  %FUEL=100.000000  R,EQ.RATIO= 0.000000  PHI,EQ.RATIO= 0.000000

 THERMODYNAMIC PROPERTIES

 P, BAR           0.06700  0.06700  0.06700  0.06700  0.06700  0.06700  0.06700  0.06700
 T, K              660.00   665.00   670.00   675.00   680.00   685.00   690.00   695.00
 RHO, KG/CU M    2.4613-3 2.4428-3 2.4245-3 2.4066-3 2.3889-3 2.3714-3 2.3543-3 2.3373-3
 H, KJ/KG         5244.21  5317.11  5390.02  5462.95  5535.90  5608.86  5681.84  5754.85
 U, KJ/KG         2522.05  2574.32  2626.61  2678.92  2731.24  2783.58  2835.94  2888.32
 G, KJ/KG        -52493.0 -52930.7 -53368.9 -53807.7 -54247.0 -54686.9 -55127.2 -55568.1
 S, KJ/(KG)(K)    87.4807  87.5907  87.6999  87.8084  87.9160  88.0229  88.1291  88.2345

 M, (1/n)           2.016    2.016    2.016    2.016    2.016    2.016    2.016    2.016
 (dLV/dLP)t      -1.00000 -1.00000 -1.00000 -1.00000 -1.00000 -1.00000 -1.00000 -1.00000
 (dLV/dLT)p        1.0000   1.0000   1.0000   1.0000   1.0000   1.0000   1.0000   1.0000
 Cp, KJ/(KG)(K)   14.5773  14.5806  14.5840  14.5875  14.5911  14.5947  14.5984  14.6022
 GAMMAs            1.3946   1.3945   1.3943   1.3942   1.3941   1.3939   1.3938   1.3936
 SON VEL,M/SEC     1948.4   1955.7   1962.9   1970.2   1977.3   1984.5   1991.6   1998.7

 TRANSPORT PROPERTIES (GASES ONLY)
   CONDUCTIVITY IN UNITS OF MILLIWATTS/(CM)(K)

 VISC,MILLIPOISE  0.15358  0.15439  0.15520  0.15600  0.15680  0.15761  0.15840  0.15920

  WITH EQUILIBRIUM REACTIONS

 Cp, KJ/(KG)(K)   14.5773  14.5806  14.5840  14.5875  14.5911  14.5947  14.5984  14.6022
 CONDUCTIVITY      3.2473   3.2650   3.2827   3.3003   3.3180   3.3357   3.3533   3.3709
 PRANDTL NUMBER    0.6894   0.6895   0.6895   0.6895   0.6896   0.6896   0.6896   0.6896

  WITH FROZEN REACTIONS

 Cp, KJ/(KG)(K)   14.5773  14.5806  14.5840  14.5875  14.5911  14.5947  14.5984  14.6022
 CONDUCTIVITY      3.2473   3.2650   3.2827   3.3003   3.3180   3.3357   3.3533   3.3709
 PRANDTL NUMBER    0.6894   0.6895   0.6895   0.6895   0.6896   0.6896   0.6896   0.6896

 MOLE FRACTIONS

 *H2              1.00000  1.00000  1.00000  1.00000  1.00000  1.00000  1.00000  1.00000

  * THERMODYNAMIC PROPERTIES FITTED TO 20000.K

 NOTE. WEIGHT FRACTION OF FUEL IN TOTAL FUELS AND OF OXIDANT IN TOTAL OXIDANTS









               THERMODYNAMIC EQUILIBRIUM PROPERTIES AT ASSIGNED

                           TEMPERATURE AND PRESSURE

 CASE =                

             REACTANT                    WT FRACTION      ENERGY      TEMP
                                          (SEE NOTE)     KJ/KG-MOL      K  
             H2                           1.0000000         0.000      0.000

 O/F=    0.00000  %FUEL=100.000000  R,EQ.RATIO= 0.000000  PHI,EQ.RATIO= 0.000000

 THERMODYNAMIC PROPERTIES

 P, BAR           0.06700  0.06700  0.06700  0.06700  0.06700  0.07400  0.07400  0.07400
 T, K              700.00   705.00   710.00   715.00   720.00   650.00   655.00   660.00
 RHO, KG/CU M    2.3206-3 2.3042-3 2.2879-3 2.2719-3 2.2562-3 2.7602-3 2.7392-3 2.7184-3
 H, KJ/KG         5827.87  5900.91  5973.97  6047.05  6120.15  5098.48  5171.34  5244.21
 U, KJ/KG         2940.72  2993.14  3045.58  3098.03  3150.51  2417.55  2469.79  2522.05
 G, KJ/KG        -56009.6 -56451.5 -56894.0 -57337.0 -57780.5 -51353.0 -51787.4 -52222.5
 S, KJ/(KG)(K)    88.3392  88.4432  88.5464  88.6490  88.7509  86.8484  86.9600  87.0708

 M, (1/n)           2.016    2.016    2.016    2.016    2.016    2.016    2.016    2.016
 (dLV/dLP)t      -1.00000 -1.00000 -1.00000 -1.00000 -1.00000 -1.00000 -1.00000 -1.00000
 (dLV/dLT)p        1.0000   1.0000   1.0000   1.0000   1.0000   1.0000   1.0000   1.0000
 Cp, KJ/(KG)(K)   14.6061  14.6100  14.6140  14.6181  14.6223  14.5709  14.5741  14.5773
 GAMMAs            1.3935   1.3934   1.3932   1.3931   1.3929   1.3948   1.3947   1.3946
 SON VEL,M/SEC     2005.8   2012.8   2019.9   2026.9   2033.8   1933.8   1941.1   1948.4

 TRANSPORT PROPERTIES (GASES ONLY)
   CONDUCTIVITY IN UNITS OF MILLIWATTS/(CM)(K)

 VISC,MILLIPOISE  0.16000  0.16080  0.16159  0.16238  0.16317  0.15196  0.15277  0.15358

  WITH EQUILIBRIUM REACTIONS

 Cp, KJ/(KG)(K)   14.6061  14.6100  14.6140  14.6181  14.6223  14.5709  14.5741  14.5773
 CONDUCTIVITY      3.3886   3.4062   3.4238   3.4414   3.4590   3.2119   3.2296   3.2473
 PRANDTL NUMBER    0.6897   0.6897   0.6897   0.6898   0.6898   0.6894   0.6894   0.6894

  WITH FROZEN REACTIONS

 Cp, KJ/(KG)(K)   14.6061  14.6100  14.6140  14.6181  14.6223  14.5709  14.5741  14.5773
 CONDUCTIVITY      3.3886   3.4062   3.4238   3.4414   3.4590   3.2119   3.2296   3.2473
 PRANDTL NUMBER    0.6897   0.6897   0.6897   0.6898   0.6898   0.6894   0.6894   0.6894

 MOLE FRACTIONS

 *H2              1.00000  1.00000  1.00000  1.00000  1.00000  1.00000  1.00000  1.00000

  * THERMODYNAMIC PROPERTIES FITTED TO 20000.K

 NOTE. WEIGHT FRACTION OF FUEL IN TOTAL FUELS AND OF OXIDANT IN TOTAL OXIDANTS









               THERMODYNAMIC EQUILIBRIUM PROPERTIES AT ASSIGNED

                           TEMPERATURE AND PRESSURE

 CASE =                

             REACTANT                    WT FRACTION      ENERGY      TEMP
                                          (SEE NOTE)     KJ/KG-MOL      K  
             H2                           1.0000000         0.000      0.000

 O/F=    0.00000  %FUEL=100.000000  R,EQ.RATIO= 0.000000  PHI,EQ.RATIO= 0.000000

 THERMODYNAMIC PROPERTIES

 P, BAR           0.07400  0.07400  0.07400  0.07400  0.07400  0.07400  0.07400  0.07400
 T, K              665.00   670.00   675.00   680.00   685.00   690.00   695.00   700.00
 RHO, KG/CU M    2.6980-3 2.6779-3 2.6580-3 2.6385-3 2.6192-3 2.6002-3 2.5815-3 2.5631-3
 H, KJ/KG         5317.11  5390.02  5462.95  5535.90  5608.86  5681.84  5754.85  5827.87
 U, KJ/KG         2574.32  2626.61  2678.92  2731.24  2783.58  2835.94  2888.32  2940.72
 G, KJ/KG        -52658.1 -53094.3 -53531.0 -53968.3 -54406.1 -54844.4 -55283.3 -55722.7
 S, KJ/(KG)(K)    87.1808  87.2901  87.3985  87.5062  87.6131  87.7192  87.8247  87.9293

 M, (1/n)           2.016    2.016    2.016    2.016    2.016    2.016    2.016    2.016
 (dLV/dLP)t      -1.00000 -1.00000 -1.00000 -1.00000 -1.00000 -1.00000 -1.00000 -1.00000
 (dLV/dLT)p        1.0000   1.0000   1.0000   1.0000   1.0000   1.0000   1.0000   1.0000
 Cp, KJ/(KG)(K)   14.5806  14.5840  14.5875  14.5911  14.5947  14.5984  14.6022  14.6061
 GAMMAs            1.3945   1.3943   1.3942   1.3941   1.3939   1.3938   1.3936   1.3935
 SON VEL,M/SEC     1955.7   1962.9   1970.2   1977.3   1984.5   1991.6   1998.7   2005.8

 TRANSPORT PROPERTIES (GASES ONLY)
   CONDUCTIVITY IN UNITS OF MILLIWATTS/(CM)(K)

 VISC,MILLIPOISE  0.15439  0.15520  0.15600  0.15680  0.15761  0.15840  0.15920  0.16000

  WITH EQUILIBRIUM REACTIONS

 Cp, KJ/(KG)(K)   14.5806  14.5840  14.5875  14.5911  14.5947  14.5984  14.6022  14.6061
 CONDUCTIVITY      3.2650   3.2827   3.3003   3.3180   3.3357   3.3533   3.3709   3.3886
 PRANDTL NUMBER    0.6895   0.6895   0.6895   0.6896   0.6896   0.6896   0.6896   0.6897

  WITH FROZEN REACTIONS

 Cp, KJ/(KG)(K)   14.5806  14.5840  14.5875  14.5911  14.5947  14.5984  14.6022  14.6061
 CONDUCTIVITY      3.2650   3.2827   3.3003   3.3180   3.3357   3.3533   3.3709   3.3886
 PRANDTL NUMBER    0.6895   0.6895   0.6895   0.6896   0.6896   0.6896   0.6896   0.6897

 MOLE FRACTIONS

 *H2              1.00000  1.00000  1.00000  1.00000  1.00000  1.00000  1.00000  1.00000

  * THERMODYNAMIC PROPERTIES FITTED TO 20000.K

 NOTE. WEIGHT FRACTION OF FUEL IN TOTAL FUELS AND OF OXIDANT IN TOTAL OXIDANTS









               THERMODYNAMIC EQUILIBRIUM PROPERTIES AT ASSIGNED

                           TEMPERATURE AND PRESSURE

 CASE =                

             REACTANT                    WT FRACTION      ENERGY      TEMP
                                          (SEE NOTE)     KJ/KG-MOL      K  
             H2                           1.0000000         0.000      0.000

 O/F=    0.00000  %FUEL=100.000000  R,EQ.RATIO= 0.000000  PHI,EQ.RATIO= 0.000000

 THERMODYNAMIC PROPERTIES

 P, BAR           0.07400  0.07400  0.07400  0.07400  0.08250  0.08250  0.08250  0.08250
 T, K              705.00   710.00   715.00   720.00   650.00   655.00   660.00   665.00
 RHO, KG/CU M    2.5449-3 2.5270-3 2.5093-3 2.4919-3 3.0773-3 3.0538-3 3.0307-3 3.0079-3
 H, KJ/KG         5900.91  5973.97  6047.05  6120.15  5098.48  5171.34  5244.21  5317.11
 U, KJ/KG         2993.14  3045.58  3098.03  3150.51  2417.55  2469.79  2522.05  2574.32
 G, KJ/KG        -56162.6 -56603.0 -57043.9 -57485.4 -51061.4 -51493.7 -51926.5 -52359.9
 S, KJ/(KG)(K)    88.0333  88.1366  88.2392  88.3410  86.3999  86.5115  86.6223  86.7324

 M, (1/n)           2.016    2.016    2.016    2.016    2.016    2.016    2.016    2.016
 (dLV/dLP)t      -1.00000 -1.00000 -1.00000 -1.00000 -1.00000 -1.00000 -1.00000 -1.00000
 (dLV/dLT)p        1.0000   1.0000   1.0000   1.0000   1.0000   1.0000   1.0000   1.0000
 Cp, KJ/(KG)(K)   14.6100  14.6140  14.6181  14.6223  14.5709  14.5741  14.5773  14.5806
 GAMMAs            1.3934   1.3932   1.3931   1.3929   1.3948   1.3947   1.3946   1.3945
 SON VEL,M/SEC     2012.8   2019.9   2026.9   2033.8   1933.8   1941.1   1948.4   1955.7

 TRANSPORT PROPERTIES (GASES ONLY)
   CONDUCTIVITY IN UNITS OF MILLIWATTS/(CM)(K)

 VISC,MILLIPOISE  0.16080  0.16159  0.16238  0.16317  0.15196  0.15277  0.15358  0.15439

  WITH EQUILIBRIUM REACTIONS

 Cp, KJ/(KG)(K)   14.6100  14.6140  14.6181  14.6223  14.5709  14.5741  14.5773  14.5806
 CONDUCTIVITY      3.4062   3.4238   3.4414   3.4590   3.2119   3.2296   3.2473   3.2650
 PRANDTL NUMBER    0.6897   0.6897   0.6898   0.6898   0.6894   0.6894   0.6894   0.6895

  WITH FROZEN REACTIONS

 Cp, KJ/(KG)(K)   14.6100  14.6140  14.6181  14.6223  14.5709  14.5741  14.5773  14.5806
 CONDUCTIVITY      3.4062   3.4238   3.4414   3.4590   3.2119   3.2296   3.2473   3.2650
 PRANDTL NUMBER    0.6897   0.6897   0.6898   0.6898   0.6894   0.6894   0.6894   0.6895

 MOLE FRACTIONS

 *H2              1.00000  1.00000  1.00000  1.00000  1.00000  1.00000  1.00000  1.00000

  * THERMODYNAMIC PROPERTIES FITTED TO 20000.K

 NOTE. WEIGHT FRACTION OF FUEL IN TOTAL FUELS AND OF OXIDANT IN TOTAL OXIDANTS









               THERMODYNAMIC EQUILIBRIUM PROPERTIES AT ASSIGNED

                           TEMPERATURE AND PRESSURE

 CASE =                

             REACTANT                    WT FRACTION      ENERGY      TEMP
                                          (SEE NOTE)     KJ/KG-MOL      K  
             H2                           1.0000000         0.000      0.000

 O/F=    0.00000  %FUEL=100.000000  R,EQ.RATIO= 0.000000  PHI,EQ.RATIO= 0.000000

 THERMODYNAMIC PROPERTIES

 P, BAR           0.08250  0.08250  0.08250  0.08250  0.08250  0.08250  0.08250  0.08250
 T, K              670.00   675.00   680.00   685.00   690.00   695.00   700.00   705.00
 RHO, KG/CU M    2.9854-3 2.9633-3 2.9415-3 2.9201-3 2.8989-3 2.8781-3 2.8575-3 2.8372-3
 H, KJ/KG         5390.02  5462.95  5535.90  5608.86  5681.84  5754.85  5827.87  5900.91
 U, KJ/KG         2626.61  2678.92  2731.24  2783.58  2835.94  2888.32  2940.72  2993.14
 G, KJ/KG        -52793.8 -53228.3 -53663.3 -54098.9 -54535.0 -54971.6 -55408.7 -55846.4
 S, KJ/(KG)(K)    86.8416  86.9500  87.0577  87.1646  87.2708  87.3762  87.4809  87.5848

 M, (1/n)           2.016    2.016    2.016    2.016    2.016    2.016    2.016    2.016
 (dLV/dLP)t      -1.00000 -1.00000 -1.00000 -1.00000 -1.00000 -1.00000 -1.00000 -1.00000
 (dLV/dLT)p        1.0000   1.0000   1.0000   1.0000   1.0000   1.0000   1.0000   1.0000
 Cp, KJ/(KG)(K)   14.5840  14.5875  14.5911  14.5947  14.5984  14.6022  14.6061  14.6100
 GAMMAs            1.3943   1.3942   1.3941   1.3939   1.3938   1.3936   1.3935   1.3934
 SON VEL,M/SEC     1962.9   1970.2   1977.3   1984.5   1991.6   1998.7   2005.8   2012.8

 TRANSPORT PROPERTIES (GASES ONLY)
   CONDUCTIVITY IN UNITS OF MILLIWATTS/(CM)(K)

 VISC,MILLIPOISE  0.15520  0.15600  0.15680  0.15761  0.15840  0.15920  0.16000  0.16080

  WITH EQUILIBRIUM REACTIONS

 Cp, KJ/(KG)(K)   14.5840  14.5875  14.5911  14.5947  14.5984  14.6022  14.6061  14.6100
 CONDUCTIVITY      3.2827   3.3003   3.3180   3.3357   3.3533   3.3709   3.3886   3.4062
 PRANDTL NUMBER    0.6895   0.6895   0.6896   0.6896   0.6896   0.6896   0.6897   0.6897

  WITH FROZEN REACTIONS

 Cp, KJ/(KG)(K)   14.5840  14.5875  14.5911  14.5947  14.5984  14.6022  14.6061  14.6100
 CONDUCTIVITY      3.2827   3.3003   3.3180   3.3357   3.3533   3.3709   3.3886   3.4062
 PRANDTL NUMBER    0.6895   0.6895   0.6896   0.6896   0.6896   0.6896   0.6897   0.6897

 MOLE FRACTIONS

 *H2              1.00000  1.00000  1.00000  1.00000  1.00000  1.00000  1.00000  1.00000

  * THERMODYNAMIC PROPERTIES FITTED TO 20000.K

 NOTE. WEIGHT FRACTION OF FUEL IN TOTAL FUELS AND OF OXIDANT IN TOTAL OXIDANTS









               THERMODYNAMIC EQUILIBRIUM PROPERTIES AT ASSIGNED

                           TEMPERATURE AND PRESSURE

 CASE =                

             REACTANT                    WT FRACTION      ENERGY      TEMP
                                          (SEE NOTE)     KJ/KG-MOL      K  
             H2                           1.0000000         0.000      0.000

 O/F=    0.00000  %FUEL=100.000000  R,EQ.RATIO= 0.000000  PHI,EQ.RATIO= 0.000000

 THERMODYNAMIC PROPERTIES

 P, BAR           0.08250  0.08250  0.08250  0.09100  0.09100  0.09100  0.09100  0.09100
 T, K              710.00   715.00   720.00   650.00   655.00   660.00   665.00   670.00
 RHO, KG/CU M    2.8172-3 2.7975-3 2.7781-3 3.3944-3 3.3684-3 3.3429-3 3.3178-3 3.2930-3
 H, KJ/KG         5973.97  6047.05  6120.15  5098.48  5171.34  5244.21  5317.11  5390.02
 U, KJ/KG         3045.58  3098.03  3150.51  2417.55  2469.79  2522.05  2574.32  2626.61
 G, KJ/KG        -56284.6 -56723.3 -57162.5 -50798.6 -51228.8 -51659.6 -52090.9 -52522.9
 S, KJ/(KG)(K)    87.6881  87.7907  87.8926  85.9954  86.1071  86.2179  86.3279  86.4371

 M, (1/n)           2.016    2.016    2.016    2.016    2.016    2.016    2.016    2.016
 (dLV/dLP)t      -1.00000 -1.00000 -1.00000 -1.00000 -1.00000 -1.00000 -1.00000 -1.00000
 (dLV/dLT)p        1.0000   1.0000   1.0000   1.0000   1.0000   1.0000   1.0000   1.0000
 Cp, KJ/(KG)(K)   14.6140  14.6181  14.6223  14.5709  14.5741  14.5773  14.5806  14.5840
 GAMMAs            1.3932   1.3931   1.3929   1.3948   1.3947   1.3946   1.3945   1.3943
 SON VEL,M/SEC     2019.9   2026.9   2033.8   1933.8   1941.1   1948.4   1955.7   1962.9

 TRANSPORT PROPERTIES (GASES ONLY)
   CONDUCTIVITY IN UNITS OF MILLIWATTS/(CM)(K)

 VISC,MILLIPOISE  0.16159  0.16238  0.16317  0.15196  0.15277  0.15358  0.15439  0.15520

  WITH EQUILIBRIUM REACTIONS

 Cp, KJ/(KG)(K)   14.6140  14.6181  14.6223  14.5709  14.5741  14.5773  14.5806  14.5840
 CONDUCTIVITY      3.4238   3.4414   3.4590   3.2119   3.2296   3.2473   3.2650   3.2827
 PRANDTL NUMBER    0.6897   0.6898   0.6898   0.6894   0.6894   0.6894   0.6895   0.6895

  WITH FROZEN REACTIONS

 Cp, KJ/(KG)(K)   14.6140  14.6181  14.6223  14.5709  14.5741  14.5773  14.5806  14.5840
 CONDUCTIVITY      3.4238   3.4414   3.4590   3.2119   3.2296   3.2473   3.2650   3.2827
 PRANDTL NUMBER    0.6897   0.6898   0.6898   0.6894   0.6894   0.6894   0.6895   0.6895

 MOLE FRACTIONS

 *H2              1.00000  1.00000  1.00000  1.00000  1.00000  1.00000  1.00000  1.00000

  * THERMODYNAMIC PROPERTIES FITTED TO 20000.K

 NOTE. WEIGHT FRACTION OF FUEL IN TOTAL FUELS AND OF OXIDANT IN TOTAL OXIDANTS









               THERMODYNAMIC EQUILIBRIUM PROPERTIES AT ASSIGNED

                           TEMPERATURE AND PRESSURE

 CASE =                

             REACTANT                    WT FRACTION      ENERGY      TEMP
                                          (SEE NOTE)     KJ/KG-MOL      K  
             H2                           1.0000000         0.000      0.000

 O/F=    0.00000  %FUEL=100.000000  R,EQ.RATIO= 0.000000  PHI,EQ.RATIO= 0.000000

 THERMODYNAMIC PROPERTIES

 P, BAR           0.09100  0.09100  0.09100  0.09100  0.09100  0.09100  0.09100  0.09100
 T, K              675.00   680.00   685.00   690.00   695.00   700.00   705.00   710.00
 RHO, KG/CU M    3.2686-3 3.2446-3 3.2209-3 3.1976-3 3.1746-3 3.1519-3 3.1295-3 3.1075-3
 H, KJ/KG         5462.95  5535.90  5608.86  5681.84  5754.85  5827.87  5900.91  5973.97
 U, KJ/KG         2678.92  2731.24  2783.58  2835.94  2888.32  2940.72  2993.14  3045.58
 G, KJ/KG        -52955.3 -53388.3 -53821.8 -54255.9 -54690.5 -55125.6 -55561.3 -55997.4
 S, KJ/(KG)(K)    86.5456  86.6532  86.7602  86.8663  86.9717  87.0764  87.1804  87.2837

 M, (1/n)           2.016    2.016    2.016    2.016    2.016    2.016    2.016    2.016
 (dLV/dLP)t      -1.00000 -1.00000 -1.00000 -1.00000 -1.00000 -1.00000 -1.00000 -1.00000
 (dLV/dLT)p        1.0000   1.0000   1.0000   1.0000   1.0000   1.0000   1.0000   1.0000
 Cp, KJ/(KG)(K)   14.5875  14.5911  14.5947  14.5984  14.6022  14.6061  14.6100  14.6140
 GAMMAs            1.3942   1.3941   1.3939   1.3938   1.3936   1.3935   1.3934   1.3932
 SON VEL,M/SEC     1970.2   1977.3   1984.5   1991.6   1998.7   2005.8   2012.8   2019.9

 TRANSPORT PROPERTIES (GASES ONLY)
   CONDUCTIVITY IN UNITS OF MILLIWATTS/(CM)(K)

 VISC,MILLIPOISE  0.15600  0.15680  0.15761  0.15840  0.15920  0.16000  0.16080  0.16159

  WITH EQUILIBRIUM REACTIONS

 Cp, KJ/(KG)(K)   14.5875  14.5911  14.5947  14.5984  14.6022  14.6061  14.6100  14.6140
 CONDUCTIVITY      3.3003   3.3180   3.3357   3.3533   3.3709   3.3886   3.4062   3.4238
 PRANDTL NUMBER    0.6895   0.6896   0.6896   0.6896   0.6896   0.6897   0.6897   0.6897

  WITH FROZEN REACTIONS

 Cp, KJ/(KG)(K)   14.5875  14.5911  14.5947  14.5984  14.6022  14.6061  14.6100  14.6140
 CONDUCTIVITY      3.3003   3.3180   3.3357   3.3533   3.3709   3.3886   3.4062   3.4238
 PRANDTL NUMBER    0.6895   0.6896   0.6896   0.6896   0.6896   0.6897   0.6897   0.6897

 MOLE FRACTIONS

 *H2              1.00000  1.00000  1.00000  1.00000  1.00000  1.00000  1.00000  1.00000

  * THERMODYNAMIC PROPERTIES FITTED TO 20000.K

 NOTE. WEIGHT FRACTION OF FUEL IN TOTAL FUELS AND OF OXIDANT IN TOTAL OXIDANTS









               THERMODYNAMIC EQUILIBRIUM PROPERTIES AT ASSIGNED

                           TEMPERATURE AND PRESSURE

 CASE =                

             REACTANT                    WT FRACTION      ENERGY      TEMP
                                          (SEE NOTE)     KJ/KG-MOL      K  
             H2                           1.0000000         0.000      0.000

 O/F=    0.00000  %FUEL=100.000000  R,EQ.RATIO= 0.000000  PHI,EQ.RATIO= 0.000000

 THERMODYNAMIC PROPERTIES

 P, BAR           0.09100  0.09100  0.10000  0.10000  0.10000  0.10000  0.10000  0.10000
 T, K              715.00   720.00   650.00   655.00   660.00   665.00   670.00   675.00
 RHO, KG/CU M    3.0858-3 3.0643-3 3.7301-3 3.7016-3 3.6735-3 3.6459-3 3.6187-3 3.5919-3
 H, KJ/KG         6047.05  6120.15  5098.48  5171.34  5244.21  5317.11  5390.02  5462.95
 U, KJ/KG         3098.03  3150.51  2417.55  2469.79  2522.05  2574.32  2626.61  2678.92
 G, KJ/KG        -56434.1 -56871.3 -50545.7 -50974.0 -51402.9 -51832.3 -52262.2 -52692.8
 S, KJ/(KG)(K)    87.3862  87.4881  85.6064  85.7181  85.8289  85.9389  86.0481  86.1566

 M, (1/n)           2.016    2.016    2.016    2.016    2.016    2.016    2.016    2.016
 (dLV/dLP)t      -1.00000 -1.00000 -1.00000 -1.00000 -1.00000 -1.00000 -1.00000 -1.00000
 (dLV/dLT)p        1.0000   1.0000   1.0000   1.0000   1.0000   1.0000   1.0000   1.0000
 Cp, KJ/(KG)(K)   14.6181  14.6223  14.5709  14.5741  14.5773  14.5806  14.5840  14.5875
 GAMMAs            1.3931   1.3929   1.3948   1.3947   1.3946   1.3945   1.3943   1.3942
 SON VEL,M/SEC     2026.9   2033.8   1933.8   1941.1   1948.4   1955.7   1962.9   1970.2

 TRANSPORT PROPERTIES (GASES ONLY)
   CONDUCTIVITY IN UNITS OF MILLIWATTS/(CM)(K)

 VISC,MILLIPOISE  0.16238  0.16317  0.15196  0.15277  0.15358  0.15439  0.15520  0.15600

  WITH EQUILIBRIUM REACTIONS

 Cp, KJ/(KG)(K)   14.6181  14.6223  14.5709  14.5741  14.5773  14.5806  14.5840  14.5875
 CONDUCTIVITY      3.4414   3.4590   3.2119   3.2296   3.2473   3.2650   3.2827   3.3003
 PRANDTL NUMBER    0.6898   0.6898   0.6894   0.6894   0.6894   0.6895   0.6895   0.6895

  WITH FROZEN REACTIONS

 Cp, KJ/(KG)(K)   14.6181  14.6223  14.5709  14.5741  14.5773  14.5806  14.5840  14.5875
 CONDUCTIVITY      3.4414   3.4590   3.2119   3.2296   3.2473   3.2650   3.2827   3.3003
 PRANDTL NUMBER    0.6898   0.6898   0.6894   0.6894   0.6894   0.6895   0.6895   0.6895

 MOLE FRACTIONS

 *H2              1.00000  1.00000  1.00000  1.00000  1.00000  1.00000  1.00000  1.00000

  * THERMODYNAMIC PROPERTIES FITTED TO 20000.K

 NOTE. WEIGHT FRACTION OF FUEL IN TOTAL FUELS AND OF OXIDANT IN TOTAL OXIDANTS









               THERMODYNAMIC EQUILIBRIUM PROPERTIES AT ASSIGNED

                           TEMPERATURE AND PRESSURE

 CASE =                

             REACTANT                    WT FRACTION      ENERGY      TEMP
                                          (SEE NOTE)     KJ/KG-MOL      K  
             H2                           1.0000000         0.000      0.000

 O/F=    0.00000  %FUEL=100.000000  R,EQ.RATIO= 0.000000  PHI,EQ.RATIO= 0.000000

 THERMODYNAMIC PROPERTIES

 P, BAR           0.10000  0.10000  0.10000  0.10000  0.10000  0.10000  0.10000  0.10000
 T, K              680.00   685.00   690.00   695.00   700.00   705.00   710.00   715.00
 RHO, KG/CU M    3.5655-3 3.5395-3 3.5138-3 3.4885-3 3.4636-3 3.4391-3 3.4148-3 3.3910-3
 H, KJ/KG         5535.90  5608.86  5681.84  5754.85  5827.87  5900.91  5973.97  6047.05
 U, KJ/KG         2731.24  2783.58  2835.94  2888.32  2940.72  2993.14  3045.58  3098.03
 G, KJ/KG        -53123.8 -53555.4 -53987.5 -54420.2 -54853.3 -55287.0 -55721.3 -56156.0
 S, KJ/(KG)(K)    86.2643  86.3712  86.4773  86.5827  86.6874  86.7914  86.8947  86.9972

 M, (1/n)           2.016    2.016    2.016    2.016    2.016    2.016    2.016    2.016
 (dLV/dLP)t      -1.00000 -1.00000 -1.00000 -1.00000 -1.00000 -1.00000 -1.00000 -1.00000
 (dLV/dLT)p        1.0000   1.0000   1.0000   1.0000   1.0000   1.0000   1.0000   1.0000
 Cp, KJ/(KG)(K)   14.5911  14.5947  14.5984  14.6022  14.6061  14.6100  14.6140  14.6181
 GAMMAs            1.3941   1.3939   1.3938   1.3936   1.3935   1.3934   1.3932   1.3931
 SON VEL,M/SEC     1977.3   1984.5   1991.6   1998.7   2005.8   2012.8   2019.9   2026.9

 TRANSPORT PROPERTIES (GASES ONLY)
   CONDUCTIVITY IN UNITS OF MILLIWATTS/(CM)(K)

 VISC,MILLIPOISE  0.15680  0.15761  0.15840  0.15920  0.16000  0.16080  0.16159  0.16238

  WITH EQUILIBRIUM REACTIONS

 Cp, KJ/(KG)(K)   14.5911  14.5947  14.5984  14.6022  14.6061  14.6100  14.6140  14.6181
 CONDUCTIVITY      3.3180   3.3357   3.3533   3.3709   3.3886   3.4062   3.4238   3.4414
 PRANDTL NUMBER    0.6896   0.6896   0.6896   0.6896   0.6897   0.6897   0.6897   0.6898

  WITH FROZEN REACTIONS

 Cp, KJ/(KG)(K)   14.5911  14.5947  14.5984  14.6022  14.6061  14.6100  14.6140  14.6181
 CONDUCTIVITY      3.3180   3.3357   3.3533   3.3709   3.3886   3.4062   3.4238   3.4414
 PRANDTL NUMBER    0.6896   0.6896   0.6896   0.6896   0.6897   0.6897   0.6897   0.6898

 MOLE FRACTIONS

 *H2              1.00000  1.00000  1.00000  1.00000  1.00000  1.00000  1.00000  1.00000

  * THERMODYNAMIC PROPERTIES FITTED TO 20000.K

 NOTE. WEIGHT FRACTION OF FUEL IN TOTAL FUELS AND OF OXIDANT IN TOTAL OXIDANTS









               THERMODYNAMIC EQUILIBRIUM PROPERTIES AT ASSIGNED

                           TEMPERATURE AND PRESSURE

 CASE =                

             REACTANT                    WT FRACTION      ENERGY      TEMP
                                          (SEE NOTE)     KJ/KG-MOL      K  
             H2                           1.0000000         0.000      0.000

 O/F=    0.00000  %FUEL=100.000000  R,EQ.RATIO= 0.000000  PHI,EQ.RATIO= 0.000000

 THERMODYNAMIC PROPERTIES

 P, BAR           0.10000
 T, K              720.00
 RHO, KG/CU M    3.3674-3
 H, KJ/KG         6120.15
 U, KJ/KG         3150.51
 G, KJ/KG        -56591.2
 S, KJ/(KG)(K)    87.0991

 M, (1/n)           2.016
 (dLV/dLP)t      -1.00000
 (dLV/dLT)p        1.0000
 Cp, KJ/(KG)(K)   14.6223
 GAMMAs            1.3929
 SON VEL,M/SEC     2033.8

 TRANSPORT PROPERTIES (GASES ONLY)
   CONDUCTIVITY IN UNITS OF MILLIWATTS/(CM)(K)

 VISC,MILLIPOISE  0.16317

  WITH EQUILIBRIUM REACTIONS

 Cp, KJ/(KG)(K)   14.6223
 CONDUCTIVITY      3.4590
 PRANDTL NUMBER    0.6898

  WITH FROZEN REACTIONS

 Cp, KJ/(KG)(K)   14.6223
 CONDUCTIVITY      3.4590
 PRANDTL NUMBER    0.6898

 MOLE FRACTIONS

 *H2              1.00000

  * THERMODYNAMIC PROPERTIES FITTED TO 20000.K

 NOTE. WEIGHT FRACTION OF FUEL IN TOTAL FUELS AND OF OXIDANT IN TOTAL OXIDANTS



  
