
 *******************************************************************************

         NASA-GLENN CHEMICAL EQUILIBRIUM PROGRAM CEA2, MAY 21, 2004
                   BY  BONNIE MCBRIDE AND SANFORD GORDON
      REFS: NASA RP-1311, PART I, 1994 AND NASA RP-1311, PART II, 1996

 *******************************************************************************



  prob tp ions
  p,bar= 0.0049,0.0054,0.006,0.0067,0.0074,0.00825,0.0091,0.01,0.011,0.012,0.0132
 ,0.0148,0.0165,0.018,0.02
  t,k= 4200,4210,4220,4230,4240,4250,4260,4270,4280,4290,4300,4310,4320,4330,4340
  
  reac
  na H2                wt%=100.0000
  
  output short
  output siunits
  output transport
  
 end





               THERMODYNAMIC EQUILIBRIUM PROPERTIES AT ASSIGNED

                           TEMPERATURE AND PRESSURE

 CASE =                

             REACTANT                    WT FRACTION      ENERGY      TEMP
                                          (SEE NOTE)     KJ/KG-MOL      K  
             H2                           1.0000000         0.000      0.000

 O/F=    0.00000  %FUEL=100.000000  R,EQ.RATIO= 0.000000  PHI,EQ.RATIO= 0.000000

 THERMODYNAMIC PROPERTIES

 P, BAR           0.00490  0.00490  0.00490  0.00490  0.00490  0.00490  0.00490  0.00490
 T, K             4200.00  4210.00  4220.00  4230.00  4240.00  4250.00  4260.00  4270.00
 RHO, KG/CU M    1.4157-5 1.4123-5 1.4089-5 1.4055-5 1.4022-5 1.3989-5 1.3955-5 1.3922-5
 H, KJ/KG        296295.1 296516.4 296736.3 296955.8 297174.7 297393.3 297611.4 297829.2
 U, KJ/KG        261683.5 261821.2 261957.7 262093.7 262229.3 262364.5 262499.3 262633.8
 G, KJ/KG       -594689.8-596809.5-598931.6-601054.3-603177.5-605301.3-607425.5-609550.3
 S, KJ/(KG)(K)   212.1393 212.1914 212.2436 212.2955 212.3472 212.3987 212.4500 212.5010

 M, (1/n)           1.009    1.009    1.009    1.009    1.009    1.009    1.009    1.009
 (dLV/dLP)t      -1.00098 -1.00096 -1.00093 -1.00090 -1.00087 -1.00085 -1.00082 -1.00080
 (dLV/dLT)p        1.0131   1.0127   1.0123   1.0119   1.0115   1.0111   1.0108   1.0104
 Cp, KJ/(KG)(K)   22.0629  22.0146  21.9666  21.9206  21.8764  21.8340  21.7933  21.7542
 GAMMAs            1.6192   1.6206   1.6221   1.6235   1.6249   1.6262   1.6275   1.6288
 SON VEL,M/SEC     7486.1   7498.5   7511.0   7523.3   7535.5   7547.5   7559.5   7571.3

 TRANSPORT PROPERTIES (GASES ONLY)
   CONDUCTIVITY IN UNITS OF MILLIWATTS/(CM)(K)

 VISC,MILLIPOISE  0.47167  0.47255  0.47344  0.47433  0.47522  0.47610  0.47699  0.47788

  WITH EQUILIBRIUM REACTIONS

 Cp, KJ/(KG)(K)   22.0518  22.0146  21.9666  21.9206  21.8764  21.8340  21.7933  21.7542
 CONDUCTIVITY     15.8069  15.7952  15.7836  15.7735  15.7648  15.7575  15.7515  15.7467
 PRANDTL NUMBER    0.6580   0.6586   0.6589   0.6592   0.6594   0.6597   0.6600   0.6602

  WITH FROZEN REACTIONS

 Cp, KJ/(KG)(K)   20.6205  20.6206  20.6207  20.6207  20.6208  20.6209  20.6209  20.6210
 CONDUCTIVITY     14.5770  14.6045  14.6323  14.6602  14.6881  14.7159  14.7438  14.7716
 PRANDTL NUMBER    0.6672   0.6672   0.6672   0.6672   0.6672   0.6671   0.6671   0.6671

 MOLE FRACTIONS

 *H               0.99901  0.99904  0.99907  0.99910  0.99912  0.99915  0.99917  0.99920
 *H2              0.00099  0.00096  0.00093  0.00090  0.00087  0.00085  0.00082  0.00080

  * THERMODYNAMIC PROPERTIES FITTED TO 20000.K

 NOTE. WEIGHT FRACTION OF FUEL IN TOTAL FUELS AND OF OXIDANT IN TOTAL OXIDANTS









               THERMODYNAMIC EQUILIBRIUM PROPERTIES AT ASSIGNED

                           TEMPERATURE AND PRESSURE

 CASE =                

             REACTANT                    WT FRACTION      ENERGY      TEMP
                                          (SEE NOTE)     KJ/KG-MOL      K  
             H2                           1.0000000         0.000      0.000

 O/F=    0.00000  %FUEL=100.000000  R,EQ.RATIO= 0.000000  PHI,EQ.RATIO= 0.000000

 THERMODYNAMIC PROPERTIES

 P, BAR           0.00490  0.00490  0.00490  0.00490  0.00490  0.00490  0.00490  0.00540
 T, K             4280.00  4290.00  4300.00  4310.00  4320.00  4330.00  4340.00  4200.00
 RHO, KG/CU M    1.3889-5 1.3857-5 1.3824-5 1.3792-5 1.3760-5 1.3728-5 1.3696-5 1.5603-5
 H, KJ/KG        298046.5 298263.5 298480.1 298696.4 298912.4 299128.0 299343.4 296249.7
 U, KJ/KG        262767.9 262901.6 263035.0 263168.1 263300.9 263433.4 263565.6 261641.5
 G, KJ/KG       -611675.5-613801.3-615927.6-618054.4-620181.7-622309.4-624437.7-591325.0
 S, KJ/(KG)(K)   212.5519 212.6025 212.6530 212.7032 212.7533 212.8031 212.8528 211.3273

 M, (1/n)           1.009    1.009    1.009    1.009    1.009    1.009    1.009    1.009
 (dLV/dLP)t      -1.00077 -1.00075 -1.00073 -1.00071 -1.00068 -1.00066 -1.00065 -1.00109
 (dLV/dLT)p        1.0101   1.0098   1.0095   1.0092   1.0089   1.0086   1.0083   1.0145
 Cp, KJ/(KG)(K)   21.7166  21.6806  21.6460  21.6127  21.5808  21.5502  21.5207  22.2088
 GAMMAs            1.6299   1.6311   1.6322   1.6333   1.6343   1.6353   1.6362   1.6148
 SON VEL,M/SEC     7583.0   7594.6   7606.1   7617.5   7628.8   7640.0   7651.1   7475.7

 TRANSPORT PROPERTIES (GASES ONLY)
   CONDUCTIVITY IN UNITS OF MILLIWATTS/(CM)(K)

 VISC,MILLIPOISE  0.47877  0.47966  0.48055  0.48144  0.48233  0.48322  0.48411  0.47176

  WITH EQUILIBRIUM REACTIONS

 Cp, KJ/(KG)(K)   21.7166  21.6806  21.6460  21.6127  21.5808  21.5502  21.5207  22.2088
 CONDUCTIVITY     15.7431  15.7407  15.7394  15.7391  15.7399  15.7416  15.7443  15.9346
 PRANDTL NUMBER    0.6604   0.6607   0.6609   0.6611   0.6613   0.6615   0.6617   0.6575

  WITH FROZEN REACTIONS

 Cp, KJ/(KG)(K)   20.6211  20.6211  20.6212  20.6213  20.6213  20.6214  20.6214  20.6203
 CONDUCTIVITY     14.7995  14.8273  14.8552  14.8830  14.9108  14.9386  14.9665  14.5781
 PRANDTL NUMBER    0.6671   0.6671   0.6671   0.6671   0.6671   0.6670   0.6670   0.6673

 MOLE FRACTIONS

 *H               0.99922  0.99925  0.99927  0.99929  0.99931  0.99933  0.99935  0.99891
 *H2              0.00077  0.00075  0.00073  0.00070  0.00068  0.00066  0.00064  0.00109

  * THERMODYNAMIC PROPERTIES FITTED TO 20000.K

 NOTE. WEIGHT FRACTION OF FUEL IN TOTAL FUELS AND OF OXIDANT IN TOTAL OXIDANTS









               THERMODYNAMIC EQUILIBRIUM PROPERTIES AT ASSIGNED

                           TEMPERATURE AND PRESSURE

 CASE =                

             REACTANT                    WT FRACTION      ENERGY      TEMP
                                          (SEE NOTE)     KJ/KG-MOL      K  
             H2                           1.0000000         0.000      0.000

 O/F=    0.00000  %FUEL=100.000000  R,EQ.RATIO= 0.000000  PHI,EQ.RATIO= 0.000000

 THERMODYNAMIC PROPERTIES

 P, BAR           0.00540  0.00540  0.00540  0.00540  0.00540  0.00540  0.00540  0.00540
 T, K             4210.00  4220.00  4230.00  4240.00  4250.00  4260.00  4270.00  4280.00
 RHO, KG/CU M    1.5566-5 1.5528-5 1.5491-5 1.5454-5 1.5417-5 1.5381-5 1.5344-5 1.5308-5
 H, KJ/KG        296471.5 296692.8 296913.5 297133.8 297353.6 297572.9 297791.8 298010.2
 U, KJ/KG        261779.7 261917.5 262054.7 262191.5 262327.8 262463.7 262599.2 262734.3
 G, KJ/KG       -593438.5-595552.6-597667.2-599782.3-601897.9-604014.0-606130.7-608247.9
 S, KJ/(KG)(K)   211.3801 211.4325 211.4848 211.5368 211.5886 211.6401 211.6914 211.7425

 M, (1/n)           1.009    1.009    1.009    1.009    1.009    1.009    1.009    1.009
 (dLV/dLP)t      -1.00105 -1.00102 -1.00099 -1.00096 -1.00093 -1.00090 -1.00088 -1.00085
 (dLV/dLT)p        1.0140   1.0135   1.0131   1.0127   1.0122   1.0118   1.0115   1.0111
 Cp, KJ/(KG)(K)   22.1537  22.1009  22.0501  22.0013  21.9545  21.9096  21.8664  21.8250
 GAMMAs            1.6165   1.6181   1.6196   1.6211   1.6226   1.6240   1.6253   1.6266
 SON VEL,M/SEC     7488.6   7501.3   7513.9   7526.4   7538.7   7550.9   7563.0   7575.0

 TRANSPORT PROPERTIES (GASES ONLY)
   CONDUCTIVITY IN UNITS OF MILLIWATTS/(CM)(K)

 VISC,MILLIPOISE  0.47265  0.47353  0.47442  0.47530  0.47619  0.47708  0.47796  0.47885

  WITH EQUILIBRIUM REACTIONS

 Cp, KJ/(KG)(K)   22.1537  22.1009  22.0501  22.0013  21.9545  21.9096  21.8664  21.8250
 CONDUCTIVITY     15.9173  15.9016  15.8877  15.8752  15.8643  15.8548  15.8467  15.8399
 PRANDTL NUMBER    0.6578   0.6581   0.6584   0.6587   0.6590   0.6593   0.6595   0.6598

  WITH FROZEN REACTIONS

 Cp, KJ/(KG)(K)   20.6204  20.6205  20.6205  20.6206  20.6207  20.6208  20.6208  20.6209
 CONDUCTIVITY     14.6060  14.6338  14.6616  14.6895  14.7173  14.7451  14.7729  14.8007
 PRANDTL NUMBER    0.6673   0.6673   0.6672   0.6672   0.6672   0.6672   0.6672   0.6671

 MOLE FRACTIONS

 *H               0.99894  0.99897  0.99900  0.99903  0.99906  0.99909  0.99912  0.99914
 *H2              0.00106  0.00102  0.00099  0.00096  0.00093  0.00090  0.00088  0.00085

  * THERMODYNAMIC PROPERTIES FITTED TO 20000.K

 NOTE. WEIGHT FRACTION OF FUEL IN TOTAL FUELS AND OF OXIDANT IN TOTAL OXIDANTS









               THERMODYNAMIC EQUILIBRIUM PROPERTIES AT ASSIGNED

                           TEMPERATURE AND PRESSURE

 CASE =                

             REACTANT                    WT FRACTION      ENERGY      TEMP
                                          (SEE NOTE)     KJ/KG-MOL      K  
             H2                           1.0000000         0.000      0.000

 O/F=    0.00000  %FUEL=100.000000  R,EQ.RATIO= 0.000000  PHI,EQ.RATIO= 0.000000

 THERMODYNAMIC PROPERTIES

 P, BAR           0.00540  0.00540  0.00540  0.00540  0.00540  0.00540  0.00600  0.00600
 T, K             4290.00  4300.00  4310.00  4320.00  4330.00  4340.00  4200.00  4210.00
 RHO, KG/CU M    1.5272-5 1.5236-5 1.5200-5 1.5165-5 1.5129-5 1.5094-5 1.7339-5 1.7297-5
 H, KJ/KG        298228.3 298445.9 298663.2 298880.1 299096.7 299313.0 296194.2 296417.7
 U, KJ/KG        262869.1 263003.4 263137.5 263271.1 263404.5 263537.5 261590.1 261729.9
 G, KJ/KG       -610365.6-612483.7-614602.4-616721.6-618841.3-620961.5-587678.9-589783.6
 S, KJ/(KG)(K)   211.7934 211.8441 211.8946 211.9449 211.9949 212.0448 210.4460 210.4991

 M, (1/n)           1.009    1.009    1.009    1.009    1.009    1.009    1.009    1.009
 (dLV/dLP)t      -1.00082 -1.00080 -1.00078 -1.00075 -1.00073 -1.00071 -1.00121 -1.00117
 (dLV/dLT)p        1.0108   1.0104   1.0101   1.0098   1.0095   1.0092   1.0160   1.0155
 Cp, KJ/(KG)(K)   21.7852  21.7470  21.7102  21.6750  21.6411  21.6085  22.3818  22.3206
 GAMMAs            1.6279   1.6291   1.6302   1.6313   1.6324   1.6335   1.6098   1.6116
 SON VEL,M/SEC     7586.8   7598.6   7610.2   7621.7   7633.1   7644.5   7463.7   7476.9

 TRANSPORT PROPERTIES (GASES ONLY)
   CONDUCTIVITY IN UNITS OF MILLIWATTS/(CM)(K)

 VISC,MILLIPOISE  0.47974  0.48062  0.48151  0.48240  0.48329  0.48418  0.47188  0.47276

  WITH EQUILIBRIUM REACTIONS

 Cp, KJ/(KG)(K)   21.7852  21.7470  21.7102  21.6750  21.6411  21.6085  22.3818  22.3206
 CONDUCTIVITY     15.8343  15.8300  15.8269  15.8248  15.8239  15.8240  16.0860  16.0636
 PRANDTL NUMBER    0.6600   0.6603   0.6605   0.6607   0.6610   0.6612   0.6566   0.6569

  WITH FROZEN REACTIONS

 Cp, KJ/(KG)(K)   20.6210  20.6210  20.6211  20.6212  20.6212  20.6213  20.6200  20.6201
 CONDUCTIVITY     14.8285  14.8564  14.8842  14.9119  14.9397  14.9675  14.5800  14.6078
 PRANDTL NUMBER    0.6671   0.6671   0.6671   0.6671   0.6671   0.6671   0.6674   0.6673

 MOLE FRACTIONS

 *H               0.99917  0.99919  0.99922  0.99924  0.99926  0.99928  0.99879  0.99882
 *H2              0.00083  0.00080  0.00078  0.00075  0.00073  0.00071  0.00121  0.00117

  * THERMODYNAMIC PROPERTIES FITTED TO 20000.K

 NOTE. WEIGHT FRACTION OF FUEL IN TOTAL FUELS AND OF OXIDANT IN TOTAL OXIDANTS









               THERMODYNAMIC EQUILIBRIUM PROPERTIES AT ASSIGNED

                           TEMPERATURE AND PRESSURE

 CASE =                

             REACTANT                    WT FRACTION      ENERGY      TEMP
                                          (SEE NOTE)     KJ/KG-MOL      K  
             H2                           1.0000000         0.000      0.000

 O/F=    0.00000  %FUEL=100.000000  R,EQ.RATIO= 0.000000  PHI,EQ.RATIO= 0.000000

 THERMODYNAMIC PROPERTIES

 P, BAR           0.00600  0.00600  0.00600  0.00600  0.00600  0.00600  0.00600  0.00600
 T, K             4220.00  4230.00  4240.00  4250.00  4260.00  4270.00  4280.00  4290.00
 RHO, KG/CU M    1.7256-5 1.7214-5 1.7173-5 1.7132-5 1.7091-5 1.7051-5 1.7010-5 1.6970-5
 H, KJ/KG        296640.6 296862.9 297084.7 297305.9 297526.7 297746.9 297966.7 298186.0
 U, KJ/KG        261869.2 262007.9 262146.1 262283.8 262421.1 262557.8 262694.2 262830.1
 G, KJ/KG       -591888.8-593994.6-596100.9-598207.8-600315.1-602423.0-604531.4-606640.3
 S, KJ/(KG)(K)   210.5520 210.6046 210.6570 210.7091 210.7610 210.8126 210.8640 210.9152

 M, (1/n)           1.009    1.009    1.009    1.009    1.009    1.009    1.009    1.009
 (dLV/dLP)t      -1.00113 -1.00110 -1.00107 -1.00103 -1.00100 -1.00097 -1.00094 -1.00092
 (dLV/dLT)p        1.0150   1.0145   1.0140   1.0136   1.0132   1.0127   1.0123   1.0119
 Cp, KJ/(KG)(K)   22.2618  22.2054  22.1512  22.0992  22.0492  22.0012  21.9551  21.9108
 GAMMAs            1.6134   1.6151   1.6167   1.6183   1.6198   1.6213   1.6227   1.6240
 SON VEL,M/SEC     7489.9   7502.9   7515.7   7528.3   7540.8   7553.2   7565.4   7577.6

 TRANSPORT PROPERTIES (GASES ONLY)
   CONDUCTIVITY IN UNITS OF MILLIWATTS/(CM)(K)

 VISC,MILLIPOISE  0.47364  0.47452  0.47541  0.47629  0.47717  0.47806  0.47894  0.47983

  WITH EQUILIBRIUM REACTIONS

 Cp, KJ/(KG)(K)   22.2618  22.2054  22.1512  22.0992  22.0492  22.0012  21.9551  21.9108
 CONDUCTIVITY     16.0432  16.0245  16.0076  15.9924  15.9787  15.9666  15.9559  15.9466
 PRANDTL NUMBER    0.6572   0.6576   0.6579   0.6582   0.6585   0.6587   0.6590   0.6593

  WITH FROZEN REACTIONS

 Cp, KJ/(KG)(K)   20.6202  20.6203  20.6204  20.6205  20.6206  20.6207  20.6207  20.6208
 CONDUCTIVITY     14.6356  14.6634  14.6911  14.7189  14.7467  14.7745  14.8022  14.8300
 PRANDTL NUMBER    0.6673   0.6673   0.6673   0.6673   0.6672   0.6672   0.6672   0.6672

 MOLE FRACTIONS

 *H               0.99886  0.99889  0.99893  0.99896  0.99899  0.99902  0.99905  0.99908
 *H2              0.00114  0.00110  0.00107  0.00104  0.00100  0.00097  0.00094  0.00092

  * THERMODYNAMIC PROPERTIES FITTED TO 20000.K

 NOTE. WEIGHT FRACTION OF FUEL IN TOTAL FUELS AND OF OXIDANT IN TOTAL OXIDANTS









               THERMODYNAMIC EQUILIBRIUM PROPERTIES AT ASSIGNED

                           TEMPERATURE AND PRESSURE

 CASE =                

             REACTANT                    WT FRACTION      ENERGY      TEMP
                                          (SEE NOTE)     KJ/KG-MOL      K  
             H2                           1.0000000         0.000      0.000

 O/F=    0.00000  %FUEL=100.000000  R,EQ.RATIO= 0.000000  PHI,EQ.RATIO= 0.000000

 THERMODYNAMIC PROPERTIES

 P, BAR           0.00600  0.00600  0.00600  0.00600  0.00600  0.00670  0.00670  0.00670
 T, K             4300.00  4310.00  4320.00  4330.00  4340.00  4200.00  4210.00  4220.00
 RHO, KG/CU M    1.6930-5 1.6891-5 1.6851-5 1.6812-5 1.6773-5 1.9365-5 1.9318-5 1.9271-5
 H, KJ/KG        298404.9 298623.4 298841.5 299059.2 299276.5 296129.4 296354.9 296579.8
 U, KJ/KG        262965.6 263100.7 263235.5 263369.9 263503.9 261530.3 261671.9 261813.0
 G, KJ/KG       -608749.7-610859.6-612970.0-615080.9-617192.4-583860.6-585956.1-588052.1
 S, KJ/(KG)(K)   210.9662 211.0169 211.0675 211.1178 211.1679 209.5214 209.5751 209.6284

 M, (1/n)           1.009    1.009    1.009    1.009    1.009    1.009    1.009    1.009
 (dLV/dLP)t      -1.00089 -1.00086 -1.00084 -1.00081 -1.00079 -1.00135 -1.00130 -1.00126
 (dLV/dLT)p        1.0116   1.0112   1.0108   1.0105   1.0102   1.0179   1.0173   1.0167
 Cp, KJ/(KG)(K)   21.8682  21.8273  21.7880  21.7503  21.7140  22.5835  22.5151  22.4495
 GAMMAs            1.6254   1.6266   1.6279   1.6291   1.6302   1.6041   1.6061   1.6080
 SON VEL,M/SEC     7589.6   7601.5   7613.3   7625.0   7636.5   7449.9   7463.5   7476.9

 TRANSPORT PROPERTIES (GASES ONLY)
   CONDUCTIVITY IN UNITS OF MILLIWATTS/(CM)(K)

 VISC,MILLIPOISE  0.48071  0.48160  0.48248  0.48337  0.48425  0.47201  0.47289  0.47377

  WITH EQUILIBRIUM REACTIONS

 Cp, KJ/(KG)(K)   21.8682  21.8273  21.7880  21.7503  21.7140  22.5835  22.5151  22.4495
 CONDUCTIVITY     15.9387  15.9321  15.9267  15.9226  15.9195  16.2624  16.2342  16.2081
 PRANDTL NUMBER    0.6595   0.6598   0.6600   0.6603   0.6605   0.6555   0.6558   0.6562

  WITH FROZEN REACTIONS

 Cp, KJ/(KG)(K)   20.6209  20.6209  20.6210  20.6211  20.6211  20.6197  20.6198  20.6199
 CONDUCTIVITY     14.8578  14.8855  14.9133  14.9410  14.9688  14.5822  14.6099  14.6376
 PRANDTL NUMBER    0.6672   0.6672   0.6671   0.6671   0.6671   0.6674   0.6674   0.6674

 MOLE FRACTIONS

 *H               0.99911  0.99913  0.99916  0.99918  0.99920  0.99865  0.99869  0.99873
 *H2              0.00089  0.00086  0.00084  0.00081  0.00079  0.00135  0.00131  0.00127

  * THERMODYNAMIC PROPERTIES FITTED TO 20000.K

 NOTE. WEIGHT FRACTION OF FUEL IN TOTAL FUELS AND OF OXIDANT IN TOTAL OXIDANTS









               THERMODYNAMIC EQUILIBRIUM PROPERTIES AT ASSIGNED

                           TEMPERATURE AND PRESSURE

 CASE =                

             REACTANT                    WT FRACTION      ENERGY      TEMP
                                          (SEE NOTE)     KJ/KG-MOL      K  
             H2                           1.0000000         0.000      0.000

 O/F=    0.00000  %FUEL=100.000000  R,EQ.RATIO= 0.000000  PHI,EQ.RATIO= 0.000000

 THERMODYNAMIC PROPERTIES

 P, BAR           0.00670  0.00670  0.00670  0.00670  0.00670  0.00670  0.00670  0.00670
 T, K             4230.00  4240.00  4250.00  4260.00  4270.00  4280.00  4290.00  4300.00
 RHO, KG/CU M    1.9225-5 1.9179-5 1.9133-5 1.9087-5 1.9042-5 1.8997-5 1.8952-5 1.8908-5
 H, KJ/KG        296803.9 297027.5 297250.5 297472.9 297694.7 297916.0 298136.8 298357.2
 U, KJ/KG        261953.4 262093.3 262232.6 262371.3 262509.6 262647.4 262784.7 262921.5
 G, KJ/KG       -590148.7-592245.8-594343.4-596441.5-598540.1-600639.3-602739.0-604839.2
 S, KJ/(KG)(K)   209.6815 209.7343 209.7868 209.8390 209.8911 209.9428 209.9944 210.0457

 M, (1/n)           1.009    1.009    1.009    1.009    1.009    1.009    1.009    1.009
 (dLV/dLP)t      -1.00123 -1.00119 -1.00115 -1.00112 -1.00108 -1.00105 -1.00102 -1.00099
 (dLV/dLT)p        1.0162   1.0157   1.0152   1.0147   1.0142   1.0137   1.0133   1.0129
 Cp, KJ/(KG)(K)   22.3865  22.3259  22.2678  22.2120  22.1583  22.1068  22.0573  22.0097
 GAMMAs            1.6098   1.6116   1.6133   1.6150   1.6166   1.6182   1.6197   1.6211
 SON VEL,M/SEC     7490.2   7503.4   7516.4   7529.2   7541.9   7554.5   7567.0   7579.3

 TRANSPORT PROPERTIES (GASES ONLY)
   CONDUCTIVITY IN UNITS OF MILLIWATTS/(CM)(K)

 VISC,MILLIPOISE  0.47465  0.47553  0.47641  0.47729  0.47817  0.47905  0.47993  0.48081

  WITH EQUILIBRIUM REACTIONS

 Cp, KJ/(KG)(K)   22.3865  22.3259  22.2678  22.2120  22.1583  22.1068  22.0573  22.0097
 CONDUCTIVITY     16.1841  16.1619  16.1416  16.1231  16.1063  16.0911  16.0775  16.0654
 PRANDTL NUMBER    0.6566   0.6569   0.6572   0.6575   0.6578   0.6581   0.6584   0.6587

  WITH FROZEN REACTIONS

 Cp, KJ/(KG)(K)   20.6200  20.6201  20.6202  20.6203  20.6204  20.6205  20.6206  20.6207
 CONDUCTIVITY     14.6654  14.6931  14.7208  14.7485  14.7763  14.8040  14.8317  14.8594
 PRANDTL NUMBER    0.6674   0.6673   0.6673   0.6673   0.6673   0.6673   0.6673   0.6672

 MOLE FRACTIONS

 *H               0.99877  0.99880  0.99884  0.99887  0.99891  0.99894  0.99897  0.99900
 *H2              0.00123  0.00119  0.00116  0.00112  0.00109  0.00105  0.00102  0.00099

  * THERMODYNAMIC PROPERTIES FITTED TO 20000.K

 NOTE. WEIGHT FRACTION OF FUEL IN TOTAL FUELS AND OF OXIDANT IN TOTAL OXIDANTS









               THERMODYNAMIC EQUILIBRIUM PROPERTIES AT ASSIGNED

                           TEMPERATURE AND PRESSURE

 CASE =                

             REACTANT                    WT FRACTION      ENERGY      TEMP
                                          (SEE NOTE)     KJ/KG-MOL      K  
             H2                           1.0000000         0.000      0.000

 O/F=    0.00000  %FUEL=100.000000  R,EQ.RATIO= 0.000000  PHI,EQ.RATIO= 0.000000

 THERMODYNAMIC PROPERTIES

 P, BAR           0.00670  0.00670  0.00670  0.00670  0.00740  0.00740  0.00740  0.00740
 T, K             4310.00  4320.00  4330.00  4340.00  4200.00  4210.00  4220.00  4230.00
 RHO, KG/CU M    1.8863-5 1.8819-5 1.8775-5 1.8731-5 2.1391-5 2.1339-5 2.1287-5 2.1236-5
 H, KJ/KG        298577.0 298796.5 299015.5 299234.0 296064.8 296292.3 296519.0 296745.0
 U, KJ/KG        263057.9 263193.9 263329.5 263464.7 261470.5 261614.0 261756.8 261899.0
 G, KJ/KG       -606939.9-609041.1-611142.9-613245.1-580422.7-582509.8-584597.5-586685.7
 S, KJ/(KG)(K)   210.0967 210.1476 210.1982 210.2486 208.6875 208.7416 208.7954 208.8489

 M, (1/n)           1.009    1.009    1.009    1.009    1.009    1.009    1.009    1.009
 (dLV/dLP)t      -1.00096 -1.00093 -1.00091 -1.00088 -1.00149 -1.00144 -1.00140 -1.00135
 (dLV/dLT)p        1.0125   1.0121   1.0117   1.0114   1.0197   1.0191   1.0185   1.0179
 Cp, KJ/(KG)(K)   21.9639  21.9200  21.8777  21.8371  22.7848  22.7094  22.6369  22.5674
 GAMMAs            1.6225   1.6239   1.6252   1.6264   1.5985   1.6007   1.6027   1.6047
 SON VEL,M/SEC     7591.5   7603.6   7615.5   7627.4   7436.4   7450.4   7464.2   7477.8

 TRANSPORT PROPERTIES (GASES ONLY)
   CONDUCTIVITY IN UNITS OF MILLIWATTS/(CM)(K)

 VISC,MILLIPOISE  0.48170  0.48258  0.48346  0.48435  0.47215  0.47302  0.47390  0.47477

  WITH EQUILIBRIUM REACTIONS

 Cp, KJ/(KG)(K)   21.9639  21.9200  21.8777  21.8371  22.7848  22.7094  22.6369  22.5674
 CONDUCTIVITY     16.0548  16.0455  16.0376  16.0309  16.4386  16.4046  16.3729  16.3434
 PRANDTL NUMBER    0.6590   0.6593   0.6595   0.6598   0.6544   0.6548   0.6552   0.6556

  WITH FROZEN REACTIONS

 Cp, KJ/(KG)(K)   20.6207  20.6208  20.6209  20.6210  20.6194  20.6196  20.6197  20.6198
 CONDUCTIVITY     14.8871  14.9149  14.9426  14.9703  14.5844  14.6120  14.6397  14.6674
 PRANDTL NUMBER    0.6672   0.6672   0.6672   0.6672   0.6675   0.6675   0.6675   0.6674

 MOLE FRACTIONS

 *H               0.99903  0.99906  0.99909  0.99911  0.99851  0.99855  0.99860  0.99864
 *H2              0.00096  0.00094  0.00091  0.00088  0.00149  0.00145  0.00140  0.00136

  * THERMODYNAMIC PROPERTIES FITTED TO 20000.K

 NOTE. WEIGHT FRACTION OF FUEL IN TOTAL FUELS AND OF OXIDANT IN TOTAL OXIDANTS









               THERMODYNAMIC EQUILIBRIUM PROPERTIES AT ASSIGNED

                           TEMPERATURE AND PRESSURE

 CASE =                

             REACTANT                    WT FRACTION      ENERGY      TEMP
                                          (SEE NOTE)     KJ/KG-MOL      K  
             H2                           1.0000000         0.000      0.000

 O/F=    0.00000  %FUEL=100.000000  R,EQ.RATIO= 0.000000  PHI,EQ.RATIO= 0.000000

 THERMODYNAMIC PROPERTIES

 P, BAR           0.00740  0.00740  0.00740  0.00740  0.00740  0.00740  0.00740  0.00740
 T, K             4240.00  4250.00  4260.00  4270.00  4280.00  4290.00  4300.00  4310.00
 RHO, KG/CU M    2.1185-5 2.1135-5 2.1084-5 2.1034-5 2.0984-5 2.0934-5 2.0885-5 2.0836-5
 H, KJ/KG        296970.4 297195.0 297419.1 297642.5 297865.4 298087.7 298309.5 298530.7
 U, KJ/KG        262040.5 262181.4 262321.7 262461.4 262600.6 262739.3 262877.5 263015.2
 G, KJ/KG       -588774.5-590863.8-592953.6-595043.9-597134.8-599226.1-601318.0-603410.5
 S, KJ/(KG)(K)   208.9021 208.9550 209.0077 209.0601 209.1122 209.1641 209.2157 209.2671

 M, (1/n)           1.009    1.009    1.009    1.009    1.009    1.009    1.009    1.009
 (dLV/dLP)t      -1.00131 -1.00127 -1.00123 -1.00120 -1.00116 -1.00113 -1.00109 -1.00106
 (dLV/dLT)p        1.0173   1.0167   1.0162   1.0157   1.0152   1.0147   1.0142   1.0138
 Cp, KJ/(KG)(K)   22.5005  22.4363  22.3746  22.3154  22.2584  22.2037  22.1511  22.1005
 GAMMAs            1.6066   1.6085   1.6103   1.6121   1.6137   1.6154   1.6170   1.6185
 SON VEL,M/SEC     7491.3   7504.7   7517.8   7530.9   7543.8   7556.5   7569.1   7581.6

 TRANSPORT PROPERTIES (GASES ONLY)
   CONDUCTIVITY IN UNITS OF MILLIWATTS/(CM)(K)

 VISC,MILLIPOISE  0.47565  0.47652  0.47740  0.47828  0.47916  0.48004  0.48092  0.48179

  WITH EQUILIBRIUM REACTIONS

 Cp, KJ/(KG)(K)   22.5005  22.4363  22.3746  22.3154  22.2584  22.2037  22.1511  22.1005
 CONDUCTIVITY     16.3160  16.2907  16.2674  16.2459  16.2263  16.2083  16.1921  16.1774
 PRANDTL NUMBER    0.6559   0.6563   0.6566   0.6570   0.6573   0.6576   0.6579   0.6582

  WITH FROZEN REACTIONS

 Cp, KJ/(KG)(K)   20.6199  20.6200  20.6201  20.6202  20.6203  20.6204  20.6205  20.6206
 CONDUCTIVITY     14.6950  14.7227  14.7504  14.7781  14.8057  14.8334  14.8611  14.8887
 PRANDTL NUMBER    0.6674   0.6674   0.6674   0.6674   0.6673   0.6673   0.6673   0.6673

 MOLE FRACTIONS

 *H               0.99868  0.99872  0.99876  0.99879  0.99883  0.99887  0.99890  0.99893
 *H2              0.00132  0.00128  0.00124  0.00120  0.00116  0.00113  0.00110  0.00106

  * THERMODYNAMIC PROPERTIES FITTED TO 20000.K

 NOTE. WEIGHT FRACTION OF FUEL IN TOTAL FUELS AND OF OXIDANT IN TOTAL OXIDANTS









               THERMODYNAMIC EQUILIBRIUM PROPERTIES AT ASSIGNED

                           TEMPERATURE AND PRESSURE

 CASE =                

             REACTANT                    WT FRACTION      ENERGY      TEMP
                                          (SEE NOTE)     KJ/KG-MOL      K  
             H2                           1.0000000         0.000      0.000

 O/F=    0.00000  %FUEL=100.000000  R,EQ.RATIO= 0.000000  PHI,EQ.RATIO= 0.000000

 THERMODYNAMIC PROPERTIES

 P, BAR           0.00740  0.00740  0.00740  0.00825  0.00825  0.00825  0.00825  0.00825
 T, K             4320.00  4330.00  4340.00  4200.00  4210.00  4220.00  4230.00  4240.00
 RHO, KG/CU M    2.0787-5 2.0738-5 2.0690-5 2.3852-5 2.3794-5 2.3736-5 2.3679-5 2.3622-5
 H, KJ/KG        298751.5 298971.8 299191.6 295986.4 296216.3 296445.3 296673.6 296901.1
 U, KJ/KG        263152.4 263289.2 263425.6 261398.0 261543.7 261688.7 261832.9 261976.4
 G, KJ/KG       -605503.4-607596.8-609690.8-576661.4-578739.4-580818.0-582897.1-584976.7
 S, KJ/(KG)(K)   209.3183 209.3692 209.4199 207.7733 207.8280 207.8823 207.9363 207.9900

 M, (1/n)           1.009    1.009    1.009    1.010    1.010    1.010    1.009    1.009
 (dLV/dLP)t      -1.00103 -1.00100 -1.00097 -1.00166 -1.00160 -1.00155 -1.00151 -1.00146
 (dLV/dLT)p        1.0133   1.0129   1.0125   1.0220   1.0213   1.0206   1.0199   1.0192
 Cp, KJ/(KG)(K)   22.0519  22.0052  21.9603  23.0290  22.9450  22.8643  22.7868  22.7123
 GAMMAs            1.6199   1.6214   1.6227   1.5920   1.5943   1.5965   1.5987   1.6008
 SON VEL,M/SEC     7594.0   7606.2   7618.3   7420.5   7434.9   7449.1   7463.2   7477.0

 TRANSPORT PROPERTIES (GASES ONLY)
   CONDUCTIVITY IN UNITS OF MILLIWATTS/(CM)(K)

 VISC,MILLIPOISE  0.48268  0.48356  0.48444  0.47231  0.47318  0.47405  0.47492  0.47579

  WITH EQUILIBRIUM REACTIONS

 Cp, KJ/(KG)(K)   22.0519  22.0052  21.9603  23.0290  22.9450  22.8643  22.7868  22.7123
 CONDUCTIVITY     16.1642  16.1526  16.1423  16.6522  16.6111  16.5726  16.5366  16.5030
 PRANDTL NUMBER    0.6585   0.6588   0.6590   0.6532   0.6536   0.6540   0.6544   0.6548

  WITH FROZEN REACTIONS

 Cp, KJ/(KG)(K)   20.6206  20.6207  20.6208  20.6191  20.6192  20.6193  20.6195  20.6196
 CONDUCTIVITY     14.9164  14.9441  14.9718  14.5870  14.6146  14.6422  14.6698  14.6974
 PRANDTL NUMBER    0.6673   0.6672   0.6672   0.6676   0.6676   0.6676   0.6675   0.6675

 MOLE FRACTIONS

 *H               0.99896  0.99899  0.99902  0.99833  0.99839  0.99844  0.99848  0.99853
 *H2              0.00103  0.00100  0.00097  0.00166  0.00161  0.00156  0.00151  0.00147

  * THERMODYNAMIC PROPERTIES FITTED TO 20000.K

 NOTE. WEIGHT FRACTION OF FUEL IN TOTAL FUELS AND OF OXIDANT IN TOTAL OXIDANTS









               THERMODYNAMIC EQUILIBRIUM PROPERTIES AT ASSIGNED

                           TEMPERATURE AND PRESSURE

 CASE =                

             REACTANT                    WT FRACTION      ENERGY      TEMP
                                          (SEE NOTE)     KJ/KG-MOL      K  
             H2                           1.0000000         0.000      0.000

 O/F=    0.00000  %FUEL=100.000000  R,EQ.RATIO= 0.000000  PHI,EQ.RATIO= 0.000000

 THERMODYNAMIC PROPERTIES

 P, BAR           0.00825  0.00825  0.00825  0.00825  0.00825  0.00825  0.00825  0.00825
 T, K             4250.00  4260.00  4270.00  4280.00  4290.00  4300.00  4310.00  4320.00
 RHO, KG/CU M    2.3566-5 2.3509-5 2.3453-5 2.3398-5 2.3342-5 2.3287-5 2.3232-5 2.3177-5
 H, KJ/KG        297127.8 297353.9 297579.3 297804.0 298028.1 298251.6 298474.6 298697.0
 U, KJ/KG        262119.3 262261.4 262403.0 262543.9 262684.3 262824.1 262963.4 263102.1
 G, KJ/KG       -587056.9-589137.6-591218.8-593300.6-595382.8-597465.7-599549.0-601632.8
 S, KJ/(KG)(K)   208.0435 208.0966 208.1494 208.2020 208.2543 208.3063 208.3581 208.4097

 M, (1/n)           1.009    1.009    1.009    1.009    1.009    1.009    1.009    1.009
 (dLV/dLP)t      -1.00142 -1.00138 -1.00133 -1.00129 -1.00126 -1.00122 -1.00118 -1.00115
 (dLV/dLT)p        1.0186   1.0180   1.0174   1.0169   1.0164   1.0158   1.0153   1.0149
 Cp, KJ/(KG)(K)   22.6407  22.5720  22.5059  22.4424  22.3814  22.3227  22.2663  22.2121
 GAMMAs            1.6028   1.6048   1.6067   1.6085   1.6103   1.6120   1.6137   1.6153
 SON VEL,M/SEC     7490.8   7504.3   7517.7   7531.0   7544.1   7557.0   7569.9   7582.6

 TRANSPORT PROPERTIES (GASES ONLY)
   CONDUCTIVITY IN UNITS OF MILLIWATTS/(CM)(K)

 VISC,MILLIPOISE  0.47666  0.47754  0.47841  0.47929  0.48016  0.48104  0.48191  0.48279

  WITH EQUILIBRIUM REACTIONS

 Cp, KJ/(KG)(K)   22.6407  22.5720  22.5059  22.4424  22.3814  22.3227  22.2663  22.2121
 CONDUCTIVITY     16.4716  16.4424  16.4153  16.3902  16.3670  16.3456  16.3261  16.3082
 PRANDTL NUMBER    0.6552   0.6556   0.6559   0.6563   0.6566   0.6569   0.6573   0.6576

  WITH FROZEN REACTIONS

 Cp, KJ/(KG)(K)   20.6197  20.6198  20.6199  20.6200  20.6201  20.6202  20.6203  20.6204
 CONDUCTIVITY     14.7250  14.7526  14.7802  14.8078  14.8355  14.8631  14.8907  14.9183
 PRANDTL NUMBER    0.6675   0.6675   0.6674   0.6674   0.6674   0.6674   0.6673   0.6673

 MOLE FRACTIONS

 *H               0.99857  0.99862  0.99866  0.99870  0.99874  0.99877  0.99881  0.99884
 *H2              0.00142  0.00138  0.00134  0.00130  0.00126  0.00122  0.00119  0.00115

  * THERMODYNAMIC PROPERTIES FITTED TO 20000.K

 NOTE. WEIGHT FRACTION OF FUEL IN TOTAL FUELS AND OF OXIDANT IN TOTAL OXIDANTS









               THERMODYNAMIC EQUILIBRIUM PROPERTIES AT ASSIGNED

                           TEMPERATURE AND PRESSURE

 CASE =                

             REACTANT                    WT FRACTION      ENERGY      TEMP
                                          (SEE NOTE)     KJ/KG-MOL      K  
             H2                           1.0000000         0.000      0.000

 O/F=    0.00000  %FUEL=100.000000  R,EQ.RATIO= 0.000000  PHI,EQ.RATIO= 0.000000

 THERMODYNAMIC PROPERTIES

 P, BAR           0.00825  0.00825  0.00910  0.00910  0.00910  0.00910  0.00910  0.00910
 T, K             4330.00  4340.00  4200.00  4210.00  4220.00  4230.00  4240.00  4250.00
 RHO, KG/CU M    2.3123-5 2.3069-5 2.6314-5 2.6250-5 2.6186-5 2.6123-5 2.6060-5 2.5997-5
 H, KJ/KG        298918.8 299140.2 295908.1 296140.4 296371.7 296602.2 296831.8 297060.7
 U, KJ/KG        263240.4 263378.1 261325.6 261473.5 261620.7 261766.9 261912.5 262057.2
 G, KJ/KG       -603717.2-605802.0-573269.9-575339.7-577410.0-579480.8-581552.2-583624.1
 S, KJ/(KG)(K)   208.4610 208.5120 206.9471 207.0024 207.0573 207.1118 207.1660 207.2200

 M, (1/n)           1.009    1.009    1.010    1.010    1.010    1.010    1.010    1.010
 (dLV/dLP)t      -1.00111 -1.00108 -1.00182 -1.00177 -1.00171 -1.00166 -1.00161 -1.00156
 (dLV/dLT)p        1.0144   1.0139   1.0242   1.0234   1.0227   1.0219   1.0212   1.0205
 Cp, KJ/(KG)(K)   22.1600  22.1098  23.2727  23.1802  23.0912  23.0058  22.9237  22.8449
 GAMMAs            1.6168   1.6183   1.5856   1.5881   1.5905   1.5928   1.5950   1.5972
 SON VEL,M/SEC     7595.1   7607.5   7405.0   7419.8   7434.4   7448.8   7463.1   7477.2

 TRANSPORT PROPERTIES (GASES ONLY)
   CONDUCTIVITY IN UNITS OF MILLIWATTS/(CM)(K)

 VISC,MILLIPOISE  0.48367  0.48455  0.47247  0.47334  0.47420  0.47507  0.47594  0.47681

  WITH EQUILIBRIUM REACTIONS

 Cp, KJ/(KG)(K)   22.1600  22.1098  23.2727  23.1802  23.0912  23.0058  22.9237  22.8449
 CONDUCTIVITY     16.2920  16.2774  16.8655  16.8174  16.7721  16.7296  16.6896  16.6522
 PRANDTL NUMBER    0.6579   0.6582   0.6520   0.6524   0.6529   0.6533   0.6537   0.6541

  WITH FROZEN REACTIONS

 Cp, KJ/(KG)(K)   20.6205  20.6206  20.6187  20.6189  20.6190  20.6191  20.6193  20.6194
 CONDUCTIVITY     14.9459  14.9736  14.5897  14.6172  14.6447  14.6722  14.6998  14.7273
 PRANDTL NUMBER    0.6673   0.6673   0.6677   0.6677   0.6677   0.6676   0.6676   0.6676

 MOLE FRACTIONS

 *H               0.99888  0.99891  0.99816  0.99822  0.99828  0.99833  0.99838  0.99843
 *H2              0.00112  0.00108  0.00183  0.00178  0.00172  0.00167  0.00162  0.00157

  * THERMODYNAMIC PROPERTIES FITTED TO 20000.K

 NOTE. WEIGHT FRACTION OF FUEL IN TOTAL FUELS AND OF OXIDANT IN TOTAL OXIDANTS









               THERMODYNAMIC EQUILIBRIUM PROPERTIES AT ASSIGNED

                           TEMPERATURE AND PRESSURE

 CASE =                

             REACTANT                    WT FRACTION      ENERGY      TEMP
                                          (SEE NOTE)     KJ/KG-MOL      K  
             H2                           1.0000000         0.000      0.000

 O/F=    0.00000  %FUEL=100.000000  R,EQ.RATIO= 0.000000  PHI,EQ.RATIO= 0.000000

 THERMODYNAMIC PROPERTIES

 P, BAR           0.00910  0.00910  0.00910  0.00910  0.00910  0.00910  0.00910  0.00910
 T, K             4260.00  4270.00  4280.00  4290.00  4300.00  4310.00  4320.00  4330.00
 RHO, KG/CU M    2.5935-5 2.5873-5 2.5812-5 2.5750-5 2.5689-5 2.5629-5 2.5569-5 2.5509-5
 H, KJ/KG        297288.7 297516.1 297742.7 297968.6 298193.9 298418.5 298642.5 298865.9
 U, KJ/KG        262201.3 262344.6 262487.3 262629.3 262770.8 262911.6 263051.9 263191.6
 G, KJ/KG       -585696.6-587769.6-589843.1-591917.2-593991.8-596066.9-598142.5-600218.7
 S, KJ/(KG)(K)   207.2736 207.3269 207.3799 207.4326 207.4850 207.5372 207.5891 207.6408

 M, (1/n)           1.009    1.009    1.009    1.009    1.009    1.009    1.009    1.009
 (dLV/dLP)t      -1.00152 -1.00147 -1.00143 -1.00138 -1.00134 -1.00130 -1.00127 -1.00123
 (dLV/dLT)p        1.0199   1.0192   1.0186   1.0180   1.0175   1.0169   1.0164   1.0159
 Cp, KJ/(KG)(K)   22.7691  22.6962  22.6262  22.5589  22.4942  22.4320  22.3722  22.3146
 GAMMAs            1.5993   1.6014   1.6034   1.6053   1.6071   1.6089   1.6107   1.6124
 SON VEL,M/SEC     7491.1   7504.8   7518.4   7531.9   7545.2   7558.3   7571.3   7584.2

 TRANSPORT PROPERTIES (GASES ONLY)
   CONDUCTIVITY IN UNITS OF MILLIWATTS/(CM)(K)

 VISC,MILLIPOISE  0.47768  0.47855  0.47942  0.48029  0.48116  0.48203  0.48291  0.48378

  WITH EQUILIBRIUM REACTIONS

 Cp, KJ/(KG)(K)   22.7691  22.6962  22.6262  22.5589  22.4942  22.4320  22.3722  22.3146
 CONDUCTIVITY     16.6171  16.5844  16.5538  16.5254  16.4991  16.4746  16.4521  16.4313
 PRANDTL NUMBER    0.6545   0.6549   0.6553   0.6556   0.6560   0.6563   0.6567   0.6570

  WITH FROZEN REACTIONS

 Cp, KJ/(KG)(K)   20.6195  20.6197  20.6198  20.6199  20.6200  20.6201  20.6202  20.6203
 CONDUCTIVITY     14.7549  14.7824  14.8100  14.8375  14.8651  14.8926  14.9202  14.9478
 PRANDTL NUMBER    0.6675   0.6675   0.6675   0.6675   0.6674   0.6674   0.6674   0.6674

 MOLE FRACTIONS

 *H               0.99847  0.99852  0.99856  0.99861  0.99865  0.99869  0.99873  0.99876
 *H2              0.00152  0.00148  0.00143  0.00139  0.00135  0.00131  0.00127  0.00123

  * THERMODYNAMIC PROPERTIES FITTED TO 20000.K

 NOTE. WEIGHT FRACTION OF FUEL IN TOTAL FUELS AND OF OXIDANT IN TOTAL OXIDANTS









               THERMODYNAMIC EQUILIBRIUM PROPERTIES AT ASSIGNED

                           TEMPERATURE AND PRESSURE

 CASE =                

             REACTANT                    WT FRACTION      ENERGY      TEMP
                                          (SEE NOTE)     KJ/KG-MOL      K  
             H2                           1.0000000         0.000      0.000

 O/F=    0.00000  %FUEL=100.000000  R,EQ.RATIO= 0.000000  PHI,EQ.RATIO= 0.000000

 THERMODYNAMIC PROPERTIES

 P, BAR           0.00910  0.01000  0.01000  0.01000  0.01000  0.01000  0.01000  0.01000
 T, K             4340.00  4200.00  4210.00  4220.00  4230.00  4240.00  4250.00  4260.00
 RHO, KG/CU M    2.5449-5 2.8922-5 2.8851-5 2.8781-5 2.8711-5 2.8642-5 2.8573-5 2.8504-5
 H, KJ/KG        299088.8 295825.3 296060.1 296293.9 296526.7 296758.6 296989.7 297219.9
 U, KJ/KG        263330.8 261249.0 261399.3 261548.7 261697.2 261844.8 261991.6 262137.6
 G, KJ/KG       -602295.4-570008.7-572070.5-574132.9-576195.8-578259.2-580323.2-582387.7
 S, KJ/(KG)(K)   207.6922 206.1510 206.2068 206.2623 206.3174 206.3721 206.4266 206.4807

 M, (1/n)           1.009    1.010    1.010    1.010    1.010    1.010    1.010    1.010
 (dLV/dLP)t      -1.00119 -1.00200 -1.00194 -1.00188 -1.00182 -1.00177 -1.00172 -1.00166
 (dLV/dLT)p        1.0154   1.0266   1.0257   1.0249   1.0241   1.0233   1.0225   1.0218
 Cp, KJ/(KG)(K)   22.2593  23.5303  23.4287  23.3312  23.2374  23.1473  23.0607  22.9775
 GAMMAs            1.6140   1.5791   1.5817   1.5843   1.5867   1.5891   1.5915   1.5937
 SON VEL,M/SEC     7596.9   7389.1   7404.3   7419.3   7434.1   7448.7   7463.1   7477.4

 TRANSPORT PROPERTIES (GASES ONLY)
   CONDUCTIVITY IN UNITS OF MILLIWATTS/(CM)(K)

 VISC,MILLIPOISE  0.48466  0.47265  0.47351  0.47437  0.47523  0.47609  0.47696  0.47782

  WITH EQUILIBRIUM REACTIONS

 Cp, KJ/(KG)(K)   22.2593  23.5303  23.4287  23.3312  23.2374  23.1473  23.0607  22.9775
 CONDUCTIVITY     16.4123  17.0909  17.0354  16.9830  16.9335  16.8869  16.8431  16.8019
 PRANDTL NUMBER    0.6573   0.6507   0.6512   0.6517   0.6521   0.6526   0.6530   0.6534

  WITH FROZEN REACTIONS

 Cp, KJ/(KG)(K)   20.6204  20.6183  20.6185  20.6187  20.6188  20.6190  20.6191  20.6192
 CONDUCTIVITY     14.9754  14.5925  14.6199  14.6473  14.6748  14.7023  14.7297  14.7572
 PRANDTL NUMBER    0.6674   0.6678   0.6678   0.6678   0.6677   0.6677   0.6677   0.6676

 MOLE FRACTIONS

 *H               0.99880  0.99798  0.99805  0.99811  0.99816  0.99822  0.99827  0.99832
 *H2              0.00120  0.00201  0.00195  0.00189  0.00183  0.00178  0.00172  0.00167

  * THERMODYNAMIC PROPERTIES FITTED TO 20000.K

 NOTE. WEIGHT FRACTION OF FUEL IN TOTAL FUELS AND OF OXIDANT IN TOTAL OXIDANTS









               THERMODYNAMIC EQUILIBRIUM PROPERTIES AT ASSIGNED

                           TEMPERATURE AND PRESSURE

 CASE =                

             REACTANT                    WT FRACTION      ENERGY      TEMP
                                          (SEE NOTE)     KJ/KG-MOL      K  
             H2                           1.0000000         0.000      0.000

 O/F=    0.00000  %FUEL=100.000000  R,EQ.RATIO= 0.000000  PHI,EQ.RATIO= 0.000000

 THERMODYNAMIC PROPERTIES

 P, BAR           0.01000  0.01000  0.01000  0.01000  0.01000  0.01000  0.01000  0.01000
 T, K             4270.00  4280.00  4290.00  4300.00  4310.00  4320.00  4330.00  4340.00
 RHO, KG/CU M    2.8436-5 2.8368-5 2.8301-5 2.8234-5 2.8167-5 2.8101-5 2.8035-5 2.7969-5
 H, KJ/KG        297449.2 297677.8 297905.6 298132.8 298359.2 298584.9 298810.0 299034.5
 U, KJ/KG        262282.9 262427.4 262571.2 262714.4 262856.8 262998.7 263140.0 263280.7
 G, KJ/KG       -584452.8-586518.4-588584.6-590651.2-592718.4-594786.2-596854.4-598923.2
 S, KJ/(KG)(K)   206.5344 206.5879 206.6411 206.6940 206.7465 206.7989 206.8509 206.9027

 M, (1/n)           1.010    1.010    1.009    1.009    1.009    1.009    1.009    1.009
 (dLV/dLP)t      -1.00161 -1.00157 -1.00152 -1.00147 -1.00143 -1.00139 -1.00135 -1.00131
 (dLV/dLT)p        1.0211   1.0204   1.0198   1.0192   1.0186   1.0180   1.0174   1.0169
 Cp, KJ/(KG)(K)   22.8975  22.8206  22.7467  22.6756  22.6073  22.5415  22.4783  22.4175
 GAMMAs            1.5959   1.5981   1.6001   1.6021   1.6040   1.6059   1.6077   1.6095
 SON VEL,M/SEC     7491.5   7505.5   7519.2   7532.9   7546.3   7559.7   7572.8   7585.9

 TRANSPORT PROPERTIES (GASES ONLY)
   CONDUCTIVITY IN UNITS OF MILLIWATTS/(CM)(K)

 VISC,MILLIPOISE  0.47869  0.47955  0.48042  0.48129  0.48216  0.48303  0.48390  0.48477

  WITH EQUILIBRIUM REACTIONS

 Cp, KJ/(KG)(K)   22.8975  22.8206  22.7467  22.6756  22.6073  22.5415  22.4783  22.4175
 CONDUCTIVITY     16.7632  16.7269  16.6930  16.6613  16.6317  16.6042  16.5787  16.5551
 PRANDTL NUMBER    0.6539   0.6543   0.6546   0.6550   0.6554   0.6558   0.6561   0.6564

  WITH FROZEN REACTIONS

 Cp, KJ/(KG)(K)   20.6194  20.6195  20.6196  20.6197  20.6198  20.6199  20.6200  20.6201
 CONDUCTIVITY     14.7847  14.8122  14.8397  14.8672  14.8947  14.9222  14.9497  14.9773
 PRANDTL NUMBER    0.6676   0.6676   0.6675   0.6675   0.6675   0.6675   0.6674   0.6674

 MOLE FRACTIONS

 *H               0.99838  0.99842  0.99847  0.99852  0.99856  0.99860  0.99864  0.99868
 *H2              0.00162  0.00157  0.00153  0.00148  0.00144  0.00139  0.00135  0.00131

  * THERMODYNAMIC PROPERTIES FITTED TO 20000.K

 NOTE. WEIGHT FRACTION OF FUEL IN TOTAL FUELS AND OF OXIDANT IN TOTAL OXIDANTS









               THERMODYNAMIC EQUILIBRIUM PROPERTIES AT ASSIGNED

                           TEMPERATURE AND PRESSURE

 CASE =                

             REACTANT                    WT FRACTION      ENERGY      TEMP
                                          (SEE NOTE)     KJ/KG-MOL      K  
             H2                           1.0000000         0.000      0.000

 O/F=    0.00000  %FUEL=100.000000  R,EQ.RATIO= 0.000000  PHI,EQ.RATIO= 0.000000

 THERMODYNAMIC PROPERTIES

 P, BAR           0.01100  0.01100  0.01100  0.01100  0.01100  0.01100  0.01100  0.01100
 T, K             4200.00  4210.00  4220.00  4230.00  4240.00  4250.00  4260.00  4270.00
 RHO, KG/CU M    3.1820-5 3.1742-5 3.1665-5 3.1588-5 3.1512-5 3.1436-5 3.1360-5 3.1285-5
 H, KJ/KG        295733.4 295971.0 296207.5 296442.9 296677.4 296910.9 297143.4 297375.0
 U, KJ/KG        261164.0 261317.0 261468.9 261619.8 261769.7 261918.8 262067.0 262214.4
 G, KJ/KG       -566713.6-568767.3-570821.6-572876.4-574931.8-576987.8-579044.3-581101.4
 S, KJ/(KG)(K)   205.3445 205.4010 205.4571 205.5129 205.5682 205.6232 205.6779 205.7322

 M, (1/n)           1.010    1.010    1.010    1.010    1.010    1.010    1.010    1.010
 (dLV/dLP)t      -1.00220 -1.00213 -1.00207 -1.00200 -1.00194 -1.00189 -1.00183 -1.00177
 (dLV/dLT)p        1.0292   1.0283   1.0273   1.0264   1.0256   1.0248   1.0240   1.0232
 Cp, KJ/(KG)(K)   23.8160  23.7044  23.5972  23.4942  23.3953  23.3002  23.2087  23.1208
 GAMMAs            1.5721   1.5749   1.5776   1.5802   1.5828   1.5853   1.5877   1.5900
 SON VEL,M/SEC     7371.9   7387.5   7402.9   7418.1   7433.1   7447.9   7462.6   7477.1

 TRANSPORT PROPERTIES (GASES ONLY)
   CONDUCTIVITY IN UNITS OF MILLIWATTS/(CM)(K)

 VISC,MILLIPOISE  0.47284  0.47369  0.47455  0.47540  0.47626  0.47712  0.47798  0.47884

  WITH EQUILIBRIUM REACTIONS

 Cp, KJ/(KG)(K)   23.8160  23.7044  23.5972  23.4942  23.3953  23.3002  23.2087  23.1208
 CONDUCTIVITY     17.3409  17.2772  17.2168  17.1598  17.1058  17.0549  17.0069  16.9616
 PRANDTL NUMBER    0.6494   0.6499   0.6504   0.6509   0.6514   0.6518   0.6523   0.6527

  WITH FROZEN REACTIONS

 Cp, KJ/(KG)(K)   20.6179  20.6181  20.6183  20.6184  20.6186  20.6187  20.6189  20.6190
 CONDUCTIVITY     14.5956  14.6229  14.6503  14.6777  14.7050  14.7324  14.7598  14.7873
 PRANDTL NUMBER    0.6679   0.6679   0.6679   0.6678   0.6678   0.6678   0.6677   0.6677

 MOLE FRACTIONS

 *H               0.99778  0.99785  0.99792  0.99798  0.99804  0.99810  0.99816  0.99821
 *H2              0.00221  0.00215  0.00208  0.00202  0.00195  0.00190  0.00184  0.00178

  * THERMODYNAMIC PROPERTIES FITTED TO 20000.K

 NOTE. WEIGHT FRACTION OF FUEL IN TOTAL FUELS AND OF OXIDANT IN TOTAL OXIDANTS









               THERMODYNAMIC EQUILIBRIUM PROPERTIES AT ASSIGNED

                           TEMPERATURE AND PRESSURE

 CASE =                

             REACTANT                    WT FRACTION      ENERGY      TEMP
                                          (SEE NOTE)     KJ/KG-MOL      K  
             H2                           1.0000000         0.000      0.000

 O/F=    0.00000  %FUEL=100.000000  R,EQ.RATIO= 0.000000  PHI,EQ.RATIO= 0.000000

 THERMODYNAMIC PROPERTIES

 P, BAR           0.01100  0.01100  0.01100  0.01100  0.01100  0.01100  0.01100  0.01200
 T, K             4280.00  4290.00  4300.00  4310.00  4320.00  4330.00  4340.00  4200.00
 RHO, KG/CU M    3.1210-5 3.1136-5 3.1062-5 3.0988-5 3.0915-5 3.0842-5 3.0770-5 3.4720-5
 H, KJ/KG        297605.8 297835.8 298064.9 298293.3 298521.0 298747.9 298974.2 295641.6
 U, KJ/KG        262360.9 262506.7 262651.8 262796.1 262939.7 263082.7 263225.1 261079.2
 G, KJ/KG       -583159.0-585217.1-587275.8-589334.9-591394.7-593454.9-595515.7-563705.9
 S, KJ/(KG)(K)   205.7862 205.8398 205.8932 205.9462 205.9990 206.0515 206.1037 204.6066

 M, (1/n)           1.010    1.010    1.010    1.010    1.009    1.009    1.009    1.010
 (dLV/dLP)t      -1.00172 -1.00167 -1.00162 -1.00157 -1.00153 -1.00148 -1.00144 -1.00240
 (dLV/dLT)p        1.0225   1.0217   1.0211   1.0204   1.0198   1.0191   1.0185   1.0318
 Cp, KJ/(KG)(K)   23.0363  22.9551  22.8769  22.8018  22.7295  22.6599  22.5930  24.1009
 GAMMAs            1.5923   1.5945   1.5967   1.5987   1.6008   1.6027   1.6046   1.5653
 SON VEL,M/SEC     7491.4   7505.5   7519.5   7533.3   7547.0   7560.5   7573.8   7355.3

 TRANSPORT PROPERTIES (GASES ONLY)
   CONDUCTIVITY IN UNITS OF MILLIWATTS/(CM)(K)

 VISC,MILLIPOISE  0.47971  0.48057  0.48144  0.48230  0.48317  0.48404  0.48490  0.47303

  WITH EQUILIBRIUM REACTIONS

 Cp, KJ/(KG)(K)   23.0363  22.9551  22.8769  22.8018  22.7295  22.6599  22.5930  24.1009
 CONDUCTIVITY     16.9190  16.8789  16.8413  16.8061  16.7731  16.7422  16.7135  17.5904
 PRANDTL NUMBER    0.6532   0.6536   0.6540   0.6544   0.6548   0.6551   0.6555   0.6481

  WITH FROZEN REACTIONS

 Cp, KJ/(KG)(K)   20.6192  20.6193  20.6194  20.6196  20.6197  20.6198  20.6199  20.6175
 CONDUCTIVITY     14.8147  14.8421  14.8696  14.8970  14.9245  14.9519  14.9794  14.5987
 PRANDTL NUMBER    0.6677   0.6676   0.6676   0.6676   0.6675   0.6675   0.6675   0.6681

 MOLE FRACTIONS

 *H               0.99827  0.99832  0.99837  0.99842  0.99846  0.99851  0.99855  0.99758
 *H2              0.00173  0.00168  0.00163  0.00158  0.00153  0.00149  0.00145  0.00241

  * THERMODYNAMIC PROPERTIES FITTED TO 20000.K

 NOTE. WEIGHT FRACTION OF FUEL IN TOTAL FUELS AND OF OXIDANT IN TOTAL OXIDANTS









               THERMODYNAMIC EQUILIBRIUM PROPERTIES AT ASSIGNED

                           TEMPERATURE AND PRESSURE

 CASE =                

             REACTANT                    WT FRACTION      ENERGY      TEMP
                                          (SEE NOTE)     KJ/KG-MOL      K  
             H2                           1.0000000         0.000      0.000

 O/F=    0.00000  %FUEL=100.000000  R,EQ.RATIO= 0.000000  PHI,EQ.RATIO= 0.000000

 THERMODYNAMIC PROPERTIES

 P, BAR           0.01200  0.01200  0.01200  0.01200  0.01200  0.01200  0.01200  0.01200
 T, K             4210.00  4220.00  4230.00  4240.00  4250.00  4260.00  4270.00  4280.00
 RHO, KG/CU M    3.4635-5 3.4550-5 3.4466-5 3.4382-5 3.4299-5 3.4217-5 3.4135-5 3.4053-5
 H, KJ/KG        295882.0 296121.2 296359.3 296596.2 296832.2 297067.0 297301.0 297533.9
 U, KJ/KG        261234.7 261389.1 261542.5 261694.8 261846.1 261996.5 262146.0 262294.6
 G, KJ/KG       -565752.3-567799.2-569846.7-571894.8-573943.4-575992.5-578042.2-580092.5
 S, KJ/(KG)(K)   204.6637 204.7205 204.7768 204.8328 204.8884 204.9436 204.9984 205.0529

 M, (1/n)           1.010    1.010    1.010    1.010    1.010    1.010    1.010    1.010
 (dLV/dLP)t      -1.00232 -1.00225 -1.00218 -1.00212 -1.00205 -1.00199 -1.00193 -1.00188
 (dLV/dLT)p        1.0308   1.0298   1.0288   1.0279   1.0270   1.0261   1.0253   1.0245
 Cp, KJ/(KG)(K)   23.9795  23.8628  23.7506  23.6428  23.5392  23.4396  23.3438  23.2517
 GAMMAs            1.5682   1.5711   1.5739   1.5766   1.5792   1.5818   1.5843   1.5867
 SON VEL,M/SEC     7371.2   7387.0   7402.6   7417.9   7433.1   7448.2   7463.0   7477.6

 TRANSPORT PROPERTIES (GASES ONLY)
   CONDUCTIVITY IN UNITS OF MILLIWATTS/(CM)(K)

 VISC,MILLIPOISE  0.47388  0.47473  0.47558  0.47643  0.47729  0.47814  0.47900  0.47986

  WITH EQUILIBRIUM REACTIONS

 Cp, KJ/(KG)(K)   23.9795  23.8628  23.7506  23.6428  23.5392  23.4396  23.3438  23.2517
 CONDUCTIVITY     17.5185  17.4503  17.3856  17.3244  17.2664  17.2115  17.1597  17.1107
 PRANDTL NUMBER    0.6486   0.6492   0.6497   0.6502   0.6507   0.6512   0.6516   0.6521

  WITH FROZEN REACTIONS

 Cp, KJ/(KG)(K)   20.6177  20.6179  20.6181  20.6182  20.6184  20.6186  20.6187  20.6189
 CONDUCTIVITY     14.6259  14.6532  14.6805  14.7078  14.7351  14.7625  14.7898  14.8172
 PRANDTL NUMBER    0.6680   0.6680   0.6679   0.6679   0.6679   0.6678   0.6678   0.6678

 MOLE FRACTIONS

 *H               0.99766  0.99773  0.99780  0.99787  0.99793  0.99799  0.99805  0.99811
 *H2              0.00234  0.00227  0.00220  0.00213  0.00207  0.00200  0.00194  0.00189

  * THERMODYNAMIC PROPERTIES FITTED TO 20000.K

 NOTE. WEIGHT FRACTION OF FUEL IN TOTAL FUELS AND OF OXIDANT IN TOTAL OXIDANTS









               THERMODYNAMIC EQUILIBRIUM PROPERTIES AT ASSIGNED

                           TEMPERATURE AND PRESSURE

 CASE =                

             REACTANT                    WT FRACTION      ENERGY      TEMP
                                          (SEE NOTE)     KJ/KG-MOL      K  
             H2                           1.0000000         0.000      0.000

 O/F=    0.00000  %FUEL=100.000000  R,EQ.RATIO= 0.000000  PHI,EQ.RATIO= 0.000000

 THERMODYNAMIC PROPERTIES

 P, BAR           0.01200  0.01200  0.01200  0.01200  0.01200  0.01200  0.01320  0.01320
 T, K             4290.00  4300.00  4310.00  4320.00  4330.00  4340.00  4200.00  4210.00
 RHO, KG/CU M    3.3972-5 3.3891-5 3.3810-5 3.3730-5 3.3651-5 3.3572-5 3.8201-5 3.8107-5
 H, KJ/KG        297766.0 297997.2 298227.6 298457.1 298685.9 298914.0 295531.6 295775.4
 U, KJ/KG        262442.3 262589.2 262735.4 262880.8 263025.5 263169.5 260977.5 261136.1
 G, KJ/KG       -582143.3-584194.6-586246.5-588298.9-590351.9-592405.3-560412.2-562450.4
 S, KJ/(KG)(K)   205.1071 205.1609 205.2144 205.2676 205.3205 205.3731 203.7961 203.8541

 M, (1/n)           1.010    1.010    1.010    1.010    1.010    1.010    1.011    1.011
 (dLV/dLP)t      -1.00182 -1.00177 -1.00172 -1.00167 -1.00162 -1.00157 -1.00263 -1.00255
 (dLV/dLT)p        1.0237   1.0229   1.0222   1.0215   1.0209   1.0202   1.0350   1.0338
 Cp, KJ/(KG)(K)   23.1631  23.0780  22.9960  22.9172  22.8414  22.7684  24.4421  24.3088
 GAMMAs            1.5891   1.5913   1.5936   1.5957   1.5978   1.5998   1.5575   1.5606
 SON VEL,M/SEC     7492.1   7506.4   7520.6   7534.6   7548.4   7562.0   7336.0   7352.3

 TRANSPORT PROPERTIES (GASES ONLY)
   CONDUCTIVITY IN UNITS OF MILLIWATTS/(CM)(K)

 VISC,MILLIPOISE  0.48072  0.48158  0.48244  0.48330  0.48417  0.48503  0.47326  0.47410

  WITH EQUILIBRIUM REACTIONS

 Cp, KJ/(KG)(K)   23.1631  23.0780  22.9960  22.9172  22.8414  22.7684  24.4421  24.3088
 CONDUCTIVITY     17.0646  17.0211  16.9802  16.9417  16.9056  16.8717  17.8892  17.8075
 PRANDTL NUMBER    0.6525   0.6529   0.6534   0.6538   0.6542   0.6546   0.6466   0.6472

  WITH FROZEN REACTIONS

 Cp, KJ/(KG)(K)   20.6190  20.6192  20.6193  20.6194  20.6195  20.6197  20.6170  20.6172
 CONDUCTIVITY     14.8445  14.8719  14.8993  14.9267  14.9541  14.9815  14.6024  14.6295
 PRANDTL NUMBER    0.6677   0.6677   0.6677   0.6676   0.6676   0.6676   0.6682   0.6681

 MOLE FRACTIONS

 *H               0.99817  0.99822  0.99827  0.99832  0.99837  0.99842  0.99734  0.99742
 *H2              0.00183  0.00178  0.00172  0.00167  0.00162  0.00158  0.00265  0.00257

  * THERMODYNAMIC PROPERTIES FITTED TO 20000.K

 NOTE. WEIGHT FRACTION OF FUEL IN TOTAL FUELS AND OF OXIDANT IN TOTAL OXIDANTS









               THERMODYNAMIC EQUILIBRIUM PROPERTIES AT ASSIGNED

                           TEMPERATURE AND PRESSURE

 CASE =                

             REACTANT                    WT FRACTION      ENERGY      TEMP
                                          (SEE NOTE)     KJ/KG-MOL      K  
             H2                           1.0000000         0.000      0.000

 O/F=    0.00000  %FUEL=100.000000  R,EQ.RATIO= 0.000000  PHI,EQ.RATIO= 0.000000

 THERMODYNAMIC PROPERTIES

 P, BAR           0.01320  0.01320  0.01320  0.01320  0.01320  0.01320  0.01320  0.01320
 T, K             4220.00  4230.00  4240.00  4250.00  4260.00  4270.00  4280.00  4290.00
 RHO, KG/CU M    3.8014-5 3.7921-5 3.7829-5 3.7737-5 3.7646-5 3.7555-5 3.7465-5 3.7375-5
 H, KJ/KG        296017.8 296259.0 296499.0 296737.8 296975.5 297212.2 297447.8 297682.4
 U, KJ/KG        261293.5 261449.8 261604.9 261759.0 261912.0 262064.0 262215.0 262365.1
 G, KJ/KG       -564489.3-566528.7-568568.6-570609.2-572650.3-574691.9-576734.1-578776.9
 S, KJ/(KG)(K)   203.9116 203.9687 204.0254 204.0816 204.1375 204.1930 204.2481 204.3029

 M, (1/n)           1.010    1.010    1.010    1.010    1.010    1.010    1.010    1.010
 (dLV/dLP)t      -1.00248 -1.00240 -1.00233 -1.00226 -1.00219 -1.00212 -1.00206 -1.00200
 (dLV/dLT)p        1.0327   1.0317   1.0306   1.0296   1.0287   1.0278   1.0269   1.0260
 Cp, KJ/(KG)(K)   24.1807  24.0575  23.9392  23.8254  23.7160  23.6108  23.5097  23.4124
 GAMMAs            1.5636   1.5666   1.5694   1.5723   1.5750   1.5776   1.5802   1.5827
 SON VEL,M/SEC     7368.5   7384.5   7400.3   7415.9   7431.3   7446.5   7461.6   7476.4

 TRANSPORT PROPERTIES (GASES ONLY)
   CONDUCTIVITY IN UNITS OF MILLIWATTS/(CM)(K)

 VISC,MILLIPOISE  0.47494  0.47579  0.47664  0.47749  0.47834  0.47919  0.48004  0.48090

  WITH EQUILIBRIUM REACTIONS

 Cp, KJ/(KG)(K)   24.1807  24.0575  23.9392  23.8254  23.7160  23.6108  23.5097  23.4124
 CONDUCTIVITY     17.7299  17.6561  17.5861  17.5197  17.4567  17.3970  17.3405  17.2870
 PRANDTL NUMBER    0.6477   0.6483   0.6488   0.6493   0.6499   0.6503   0.6508   0.6513

  WITH FROZEN REACTIONS

 Cp, KJ/(KG)(K)   20.6174  20.6176  20.6178  20.6180  20.6182  20.6183  20.6185  20.6187
 CONDUCTIVITY     14.6567  14.6839  14.7111  14.7384  14.7656  14.7929  14.8201  14.8474
 PRANDTL NUMBER    0.6681   0.6681   0.6680   0.6680   0.6679   0.6679   0.6679   0.6678

 MOLE FRACTIONS

 *H               0.99750  0.99758  0.99765  0.99772  0.99779  0.99786  0.99792  0.99798
 *H2              0.00249  0.00242  0.00234  0.00227  0.00220  0.00214  0.00207  0.00201

  * THERMODYNAMIC PROPERTIES FITTED TO 20000.K

 NOTE. WEIGHT FRACTION OF FUEL IN TOTAL FUELS AND OF OXIDANT IN TOTAL OXIDANTS









               THERMODYNAMIC EQUILIBRIUM PROPERTIES AT ASSIGNED

                           TEMPERATURE AND PRESSURE

 CASE =                

             REACTANT                    WT FRACTION      ENERGY      TEMP
                                          (SEE NOTE)     KJ/KG-MOL      K  
             H2                           1.0000000         0.000      0.000

 O/F=    0.00000  %FUEL=100.000000  R,EQ.RATIO= 0.000000  PHI,EQ.RATIO= 0.000000

 THERMODYNAMIC PROPERTIES

 P, BAR           0.01320  0.01320  0.01320  0.01320  0.01320  0.01480  0.01480  0.01480
 T, K             4300.00  4310.00  4320.00  4330.00  4340.00  4200.00  4210.00  4220.00
 RHO, KG/CU M    3.7286-5 3.7198-5 3.7110-5 3.7022-5 3.6935-5 4.2845-5 4.2739-5 4.2634-5
 H, KJ/KG        297916.0 298148.8 298380.6 298611.6 298841.8 295385.3 295633.5 295880.2
 U, KJ/KG        262514.3 262662.7 262810.2 262957.0 263102.9 260842.1 261004.9 261166.4
 G, KJ/KG       -580820.2-582864.0-584908.4-586953.3-588998.8-556459.4-558487.9-560517.0
 S, KJ/(KG)(K)   204.3573 204.4113 204.4650 204.5185 204.5716 202.8202 202.8792 202.9377

 M, (1/n)           1.010    1.010    1.010    1.010    1.010    1.011    1.011    1.011
 (dLV/dLP)t      -1.00194 -1.00188 -1.00183 -1.00178 -1.00173 -1.00295 -1.00286 -1.00277
 (dLV/dLT)p        1.0252   1.0244   1.0237   1.0229   1.0222   1.0392   1.0379   1.0366
 Cp, KJ/(KG)(K)   23.3188  23.2288  23.1422  23.0589  22.9787  24.8955  24.7465  24.6033
 GAMMAs            1.5852   1.5875   1.5898   1.5920   1.5942   1.5475   1.5508   1.5541
 SON VEL,M/SEC     7491.1   7505.6   7520.0   7534.2   7548.2   7311.3   7328.2   7344.9

 TRANSPORT PROPERTIES (GASES ONLY)
   CONDUCTIVITY IN UNITS OF MILLIWATTS/(CM)(K)

 VISC,MILLIPOISE  0.48175  0.48261  0.48347  0.48433  0.48519  0.47356  0.47440  0.47523

  WITH EQUILIBRIUM REACTIONS

 Cp, KJ/(KG)(K)   23.3188  23.2288  23.1422  23.0589  22.9787  24.8955  24.7465  24.6033
 CONDUCTIVITY     17.2365  17.1888  17.1437  17.1013  17.0613  18.2865  18.1918  18.1016
 PRANDTL NUMBER    0.6518   0.6522   0.6526   0.6531   0.6535   0.6447   0.6453   0.6459

  WITH FROZEN REACTIONS

 Cp, KJ/(KG)(K)   20.6188  20.6190  20.6191  20.6192  20.6194  20.6163  20.6166  20.6168
 CONDUCTIVITY     14.8747  14.9020  14.9293  14.9567  14.9840  14.6073  14.6344  14.6614
 PRANDTL NUMBER    0.6678   0.6678   0.6677   0.6677   0.6677   0.6684   0.6683   0.6683

 MOLE FRACTIONS

 *H               0.99804  0.99810  0.99816  0.99821  0.99826  0.99702  0.99711  0.99720
 *H2              0.00195  0.00189  0.00184  0.00179  0.00173  0.00297  0.00288  0.00279

  * THERMODYNAMIC PROPERTIES FITTED TO 20000.K

 NOTE. WEIGHT FRACTION OF FUEL IN TOTAL FUELS AND OF OXIDANT IN TOTAL OXIDANTS









               THERMODYNAMIC EQUILIBRIUM PROPERTIES AT ASSIGNED

                           TEMPERATURE AND PRESSURE

 CASE =                

             REACTANT                    WT FRACTION      ENERGY      TEMP
                                          (SEE NOTE)     KJ/KG-MOL      K  
             H2                           1.0000000         0.000      0.000

 O/F=    0.00000  %FUEL=100.000000  R,EQ.RATIO= 0.000000  PHI,EQ.RATIO= 0.000000

 THERMODYNAMIC PROPERTIES

 P, BAR           0.01480  0.01480  0.01480  0.01480  0.01480  0.01480  0.01480  0.01480
 T, K             4230.00  4240.00  4250.00  4260.00  4270.00  4280.00  4290.00  4300.00
 RHO, KG/CU M    4.2530-5 4.2426-5 4.2323-5 4.2220-5 4.2118-5 4.2017-5 4.1916-5 4.1816-5
 H, KJ/KG        296125.6 296369.6 296612.2 296853.7 297093.9 297333.0 297571.0 297807.9
 U, KJ/KG        261326.5 261485.3 261643.0 261799.4 261954.8 262109.1 262262.3 262414.5
 G, KJ/KG       -562546.7-564576.9-566607.8-568639.2-570671.1-572703.6-574736.7-576770.3
 S, KJ/(KG)(K)   202.9958 203.0534 203.1106 203.1673 203.2237 203.2796 203.3351 203.3903

 M, (1/n)           1.011    1.011    1.011    1.010    1.010    1.010    1.010    1.010
 (dLV/dLP)t      -1.00269 -1.00261 -1.00253 -1.00245 -1.00238 -1.00231 -1.00224 -1.00217
 (dLV/dLT)p        1.0354   1.0343   1.0332   1.0321   1.0311   1.0301   1.0291   1.0282
 Cp, KJ/(KG)(K)   24.4656  24.3333  24.2060  24.0837  23.9660  23.8528  23.7440  23.6393
 GAMMAs            1.5572   1.5603   1.5633   1.5662   1.5691   1.5718   1.5745   1.5772
 SON VEL,M/SEC     7361.4   7377.6   7393.7   7409.6   7425.3   7440.9   7456.2   7471.4

 TRANSPORT PROPERTIES (GASES ONLY)
   CONDUCTIVITY IN UNITS OF MILLIWATTS/(CM)(K)

 VISC,MILLIPOISE  0.47607  0.47691  0.47775  0.47859  0.47944  0.48029  0.48113  0.48198

  WITH EQUILIBRIUM REACTIONS

 Cp, KJ/(KG)(K)   24.4656  24.3333  24.2060  24.0837  23.9660  23.8528  23.7440  23.6393
 CONDUCTIVITY     18.0158  17.9342  17.8566  17.7828  17.7127  17.6461  17.5830  17.5231
 PRANDTL NUMBER    0.6465   0.6471   0.6476   0.6482   0.6487   0.6492   0.6497   0.6502

  WITH FROZEN REACTIONS

 Cp, KJ/(KG)(K)   20.6170  20.6172  20.6174  20.6176  20.6178  20.6180  20.6182  20.6184
 CONDUCTIVITY     14.6885  14.7156  14.7427  14.7698  14.7969  14.8241  14.8513  14.8785
 PRANDTL NUMBER    0.6682   0.6682   0.6681   0.6681   0.6680   0.6680   0.6680   0.6679

 MOLE FRACTIONS

 *H               0.99729  0.99737  0.99745  0.99753  0.99760  0.99767  0.99774  0.99781
 *H2              0.00271  0.00263  0.00255  0.00247  0.00240  0.00232  0.00225  0.00219

  * THERMODYNAMIC PROPERTIES FITTED TO 20000.K

 NOTE. WEIGHT FRACTION OF FUEL IN TOTAL FUELS AND OF OXIDANT IN TOTAL OXIDANTS









               THERMODYNAMIC EQUILIBRIUM PROPERTIES AT ASSIGNED

                           TEMPERATURE AND PRESSURE

 CASE =                

             REACTANT                    WT FRACTION      ENERGY      TEMP
                                          (SEE NOTE)     KJ/KG-MOL      K  
             H2                           1.0000000         0.000      0.000

 O/F=    0.00000  %FUEL=100.000000  R,EQ.RATIO= 0.000000  PHI,EQ.RATIO= 0.000000

 THERMODYNAMIC PROPERTIES

 P, BAR           0.01480  0.01480  0.01480  0.01480  0.01650  0.01650  0.01650  0.01650
 T, K             4310.00  4320.00  4330.00  4340.00  4200.00  4210.00  4220.00  4230.00
 RHO, KG/CU M    4.1716-5 4.1617-5 4.1518-5 4.1420-5 4.7783-5 4.7664-5 4.7547-5 4.7430-5
 H, KJ/KG        298043.8 298278.7 298512.7 298745.7 295230.1 295483.0 295734.3 295984.0
 U, KJ/KG        262565.8 262716.2 262865.7 263014.3 260698.6 260865.8 261031.5 261195.7
 G, KJ/KG       -578804.5-580839.2-582874.5-584910.3-552704.1-554723.3-556743.1-558763.4
 S, KJ/(KG)(K)   203.4451 203.4995 203.5536 203.6074 201.8891 201.9492 202.0089 202.0680

 M, (1/n)           1.010    1.010    1.010    1.010    1.011    1.011    1.011    1.011
 (dLV/dLP)t      -1.00211 -1.00205 -1.00199 -1.00193 -1.00328 -1.00318 -1.00308 -1.00299
 (dLV/dLT)p        1.0273   1.0265   1.0257   1.0249   1.0436   1.0421   1.0408   1.0394
 Cp, KJ/(KG)(K)   23.5385  23.4416  23.3483  23.2585  25.3754  25.2098  25.0507  24.8977
 GAMMAs            1.5797   1.5822   1.5846   1.5870   1.5375   1.5410   1.5444   1.5478
 SON VEL,M/SEC     7486.3   7501.1   7515.8   7530.2   7286.3   7303.7   7320.9   7337.8

 TRANSPORT PROPERTIES (GASES ONLY)
   CONDUCTIVITY IN UNITS OF MILLIWATTS/(CM)(K)

 VISC,MILLIPOISE  0.48283  0.48369  0.48454  0.48539  0.47388  0.47471  0.47554  0.47637

  WITH EQUILIBRIUM REACTIONS

 Cp, KJ/(KG)(K)   23.5385  23.4416  23.3483  23.2585  25.3754  25.2098  25.0507  24.8977
 CONDUCTIVITY     17.4663  17.4126  17.3618  17.3137  18.7072  18.5988  18.4955  18.3969
 PRANDTL NUMBER    0.6507   0.6512   0.6516   0.6521   0.6428   0.6434   0.6441   0.6447

  WITH FROZEN REACTIONS

 Cp, KJ/(KG)(K)   20.6185  20.6187  20.6188  20.6190  20.6156  20.6159  20.6161  20.6164
 CONDUCTIVITY     14.9057  14.9329  14.9601  14.9874  14.6126  14.6395  14.6664  14.6933
 PRANDTL NUMBER    0.6679   0.6679   0.6678   0.6678   0.6686   0.6685   0.6684   0.6684

 MOLE FRACTIONS

 *H               0.99787  0.99794  0.99800  0.99805  0.99668  0.99679  0.99688  0.99698
 *H2              0.00212  0.00206  0.00200  0.00194  0.00331  0.00321  0.00311  0.00302

  * THERMODYNAMIC PROPERTIES FITTED TO 20000.K

 NOTE. WEIGHT FRACTION OF FUEL IN TOTAL FUELS AND OF OXIDANT IN TOTAL OXIDANTS









               THERMODYNAMIC EQUILIBRIUM PROPERTIES AT ASSIGNED

                           TEMPERATURE AND PRESSURE

 CASE =                

             REACTANT                    WT FRACTION      ENERGY      TEMP
                                          (SEE NOTE)     KJ/KG-MOL      K  
             H2                           1.0000000         0.000      0.000

 O/F=    0.00000  %FUEL=100.000000  R,EQ.RATIO= 0.000000  PHI,EQ.RATIO= 0.000000

 THERMODYNAMIC PROPERTIES

 P, BAR           0.01650  0.01650  0.01650  0.01650  0.01650  0.01650  0.01650  0.01650
 T, K             4240.00  4250.00  4260.00  4270.00  4280.00  4290.00  4300.00  4310.00
 RHO, KG/CU M    4.7313-5 4.7198-5 4.7083-5 4.6969-5 4.6856-5 4.6743-5 4.6631-5 4.6519-5
 H, KJ/KG        296232.3 296479.1 296724.5 296968.6 297211.3 297452.9 297693.3 297932.5
 U, KJ/KG        261358.5 261519.9 261680.1 261839.0 261996.7 262153.3 262308.7 262463.1
 G, KJ/KG       -560784.4-562806.0-564828.1-566850.8-568874.1-570898.0-572922.4-574947.3
 S, KJ/(KG)(K)   202.1266 202.1847 202.2424 202.2996 202.3564 202.4128 202.4688 202.5243

 M, (1/n)           1.011    1.011    1.011    1.011    1.011    1.010    1.010    1.010
 (dLV/dLP)t      -1.00290 -1.00281 -1.00273 -1.00265 -1.00257 -1.00249 -1.00242 -1.00235
 (dLV/dLT)p        1.0382   1.0369   1.0358   1.0346   1.0335   1.0324   1.0314   1.0304
 Cp, KJ/(KG)(K)   24.7506  24.6091  24.4731  24.3423  24.2164  24.0953  23.9789  23.8668
 GAMMAs            1.5510   1.5542   1.5573   1.5604   1.5633   1.5662   1.5690   1.5718
 SON VEL,M/SEC     7354.6   7371.2   7387.5   7403.7   7419.7   7435.5   7451.1   7466.6

 TRANSPORT PROPERTIES (GASES ONLY)
   CONDUCTIVITY IN UNITS OF MILLIWATTS/(CM)(K)

 VISC,MILLIPOISE  0.47720  0.47803  0.47887  0.47970  0.48054  0.48138  0.48223  0.48307

  WITH EQUILIBRIUM REACTIONS

 Cp, KJ/(KG)(K)   24.7506  24.6091  24.4731  24.3423  24.2164  24.0953  23.9789  23.8668
 CONDUCTIVITY     18.3030  18.2136  18.1283  18.0472  17.9701  17.8967  17.8269  17.7606
 PRANDTL NUMBER    0.6453   0.6459   0.6465   0.6470   0.6476   0.6481   0.6486   0.6492

  WITH FROZEN REACTIONS

 Cp, KJ/(KG)(K)   20.6166  20.6168  20.6171  20.6173  20.6175  20.6177  20.6179  20.6181
 CONDUCTIVITY     14.7202  14.7472  14.7742  14.8013  14.8283  14.8554  14.8825  14.9096
 PRANDTL NUMBER    0.6683   0.6683   0.6682   0.6682   0.6682   0.6681   0.6681   0.6680

 MOLE FRACTIONS

 *H               0.99707  0.99716  0.99725  0.99733  0.99741  0.99748  0.99756  0.99763
 *H2              0.00293  0.00284  0.00275  0.00267  0.00259  0.00251  0.00244  0.00237

  * THERMODYNAMIC PROPERTIES FITTED TO 20000.K

 NOTE. WEIGHT FRACTION OF FUEL IN TOTAL FUELS AND OF OXIDANT IN TOTAL OXIDANTS









               THERMODYNAMIC EQUILIBRIUM PROPERTIES AT ASSIGNED

                           TEMPERATURE AND PRESSURE

 CASE =                

             REACTANT                    WT FRACTION      ENERGY      TEMP
                                          (SEE NOTE)     KJ/KG-MOL      K  
             H2                           1.0000000         0.000      0.000

 O/F=    0.00000  %FUEL=100.000000  R,EQ.RATIO= 0.000000  PHI,EQ.RATIO= 0.000000

 THERMODYNAMIC PROPERTIES

 P, BAR           0.01650  0.01650  0.01650  0.01800  0.01800  0.01800  0.01800  0.01800
 T, K             4320.00  4330.00  4340.00  4200.00  4210.00  4220.00  4230.00  4240.00
 RHO, KG/CU M    4.6408-5 4.6298-5 4.6188-5 5.2142-5 5.2012-5 5.1883-5 5.1755-5 5.1628-5
 H, KJ/KG        298170.6 298407.7 298643.7 295093.4 295350.5 295605.8 295859.4 296111.4
 U, KJ/KG        262616.5 262768.8 262920.3 260572.3 260743.3 260912.7 261080.5 261246.8
 G, KJ/KG       -576972.8-578998.9-581025.5-549699.9-551711.6-553723.9-555736.9-557750.4
 S, KJ/(KG)(K)   202.5795 202.6343 202.6888 201.1413 201.2024 201.2630 201.3230 201.3825

 M, (1/n)           1.010    1.010    1.010    1.012    1.011    1.011    1.011    1.011
 (dLV/dLP)t      -1.00228 -1.00222 -1.00215 -1.00357 -1.00347 -1.00336 -1.00326 -1.00316
 (dLV/dLT)p        1.0295   1.0286   1.0277   1.0475   1.0459   1.0444   1.0430   1.0416
 Cp, KJ/(KG)(K)   23.7589  23.6551  23.5551  25.7972  25.6172  25.4441  25.2777  25.1176
 GAMMAs            1.5744   1.5770   1.5795   1.5291   1.5327   1.5363   1.5398   1.5432
 SON VEL,M/SEC     7481.8   7496.9   7511.8   7265.3   7283.0   7300.6   7317.9   7335.1

 TRANSPORT PROPERTIES (GASES ONLY)
   CONDUCTIVITY IN UNITS OF MILLIWATTS/(CM)(K)

 VISC,MILLIPOISE  0.48392  0.48476  0.48561  0.47417  0.47499  0.47580  0.47663  0.47745

  WITH EQUILIBRIUM REACTIONS

 Cp, KJ/(KG)(K)   23.7589  23.6551  23.5551  25.7972  25.6172  25.4441  25.2777  25.1176
 CONDUCTIVITY     17.6977  17.6380  17.5813  19.0773  18.9569  18.8419  18.7322  18.6275
 PRANDTL NUMBER    0.6497   0.6501   0.6506   0.6412   0.6419   0.6425   0.6432   0.6438

  WITH FROZEN REACTIONS

 Cp, KJ/(KG)(K)   20.6182  20.6184  20.6186  20.6150  20.6153  20.6155  20.6158  20.6161
 CONDUCTIVITY     14.9367  14.9638  14.9910  14.6172  14.6439  14.6707  14.6975  14.7244
 PRANDTL NUMBER    0.6680   0.6679   0.6679   0.6687   0.6687   0.6686   0.6686   0.6685

 MOLE FRACTIONS

 *H               0.99770  0.99777  0.99783  0.99638  0.99650  0.99660  0.99671  0.99681
 *H2              0.00230  0.00223  0.00216  0.00361  0.00350  0.00339  0.00329  0.00319

  * THERMODYNAMIC PROPERTIES FITTED TO 20000.K

 NOTE. WEIGHT FRACTION OF FUEL IN TOTAL FUELS AND OF OXIDANT IN TOTAL OXIDANTS









               THERMODYNAMIC EQUILIBRIUM PROPERTIES AT ASSIGNED

                           TEMPERATURE AND PRESSURE

 CASE =                

             REACTANT                    WT FRACTION      ENERGY      TEMP
                                          (SEE NOTE)     KJ/KG-MOL      K  
             H2                           1.0000000         0.000      0.000

 O/F=    0.00000  %FUEL=100.000000  R,EQ.RATIO= 0.000000  PHI,EQ.RATIO= 0.000000

 THERMODYNAMIC PROPERTIES

 P, BAR           0.01800  0.01800  0.01800  0.01800  0.01800  0.01800  0.01800  0.01800
 T, K             4250.00  4260.00  4270.00  4280.00  4290.00  4300.00  4310.00  4320.00
 RHO, KG/CU M    5.1502-5 5.1376-5 5.1251-5 5.1127-5 5.1004-5 5.0881-5 5.0759-5 5.0637-5
 H, KJ/KG        296361.8 296610.7 296858.1 297104.1 297348.8 297592.3 297834.4 298075.4
 U, KJ/KG        261411.6 261575.0 261737.0 261897.7 262057.2 262215.5 262372.6 262528.6
 G, KJ/KG       -559764.5-561779.2-563794.5-565810.4-567826.8-569843.8-571861.4-573879.5
 S, KJ/(KG)(K)   201.4415 201.5000 201.5580 201.6155 201.6727 201.7293 201.7856 201.8414

 M, (1/n)           1.011    1.011    1.011    1.011    1.011    1.011    1.011    1.010
 (dLV/dLP)t      -1.00307 -1.00297 -1.00289 -1.00280 -1.00272 -1.00264 -1.00256 -1.00249
 (dLV/dLT)p        1.0402   1.0390   1.0377   1.0365   1.0354   1.0342   1.0332   1.0321
 Cp, KJ/(KG)(K)   24.9637  24.8157  24.6733  24.5363  24.4045  24.2777  24.1557  24.0382
 GAMMAs            1.5466   1.5498   1.5530   1.5561   1.5592   1.5621   1.5650   1.5678
 SON VEL,M/SEC     7352.0   7368.8   7385.3   7401.7   7417.9   7433.9   7449.7   7465.3

 TRANSPORT PROPERTIES (GASES ONLY)
   CONDUCTIVITY IN UNITS OF MILLIWATTS/(CM)(K)

 VISC,MILLIPOISE  0.47828  0.47911  0.47994  0.48077  0.48160  0.48244  0.48328  0.48412

  WITH EQUILIBRIUM REACTIONS

 Cp, KJ/(KG)(K)   24.9637  24.8157  24.6733  24.5363  24.4045  24.2777  24.1557  24.0382
 CONDUCTIVITY     18.5277  18.4325  18.3417  18.2552  18.1728  18.0943  18.0197  17.9487
 PRANDTL NUMBER    0.6444   0.6450   0.6456   0.6462   0.6468   0.6473   0.6478   0.6484

  WITH FROZEN REACTIONS

 Cp, KJ/(KG)(K)   20.6163  20.6166  20.6168  20.6170  20.6172  20.6174  20.6176  20.6178
 CONDUCTIVITY     14.7512  14.7781  14.8051  14.8320  14.8590  14.8860  14.9130  14.9400
 PRANDTL NUMBER    0.6684   0.6684   0.6683   0.6683   0.6682   0.6682   0.6681   0.6681

 MOLE FRACTIONS

 *H               0.99690  0.99700  0.99709  0.99717  0.99726  0.99734  0.99742  0.99749
 *H2              0.00309  0.00300  0.00291  0.00282  0.00274  0.00266  0.00258  0.00250

  * THERMODYNAMIC PROPERTIES FITTED TO 20000.K

 NOTE. WEIGHT FRACTION OF FUEL IN TOTAL FUELS AND OF OXIDANT IN TOTAL OXIDANTS









               THERMODYNAMIC EQUILIBRIUM PROPERTIES AT ASSIGNED

                           TEMPERATURE AND PRESSURE

 CASE =                

             REACTANT                    WT FRACTION      ENERGY      TEMP
                                          (SEE NOTE)     KJ/KG-MOL      K  
             H2                           1.0000000         0.000      0.000

 O/F=    0.00000  %FUEL=100.000000  R,EQ.RATIO= 0.000000  PHI,EQ.RATIO= 0.000000

 THERMODYNAMIC PROPERTIES

 P, BAR           0.01800  0.01800  0.02000  0.02000  0.02000  0.02000  0.02000  0.02000
 T, K             4330.00  4340.00  4200.00  4210.00  4220.00  4230.00  4240.00  4250.00
 RHO, KG/CU M    5.0517-5 5.0397-5 5.7958-5 5.7814-5 5.7670-5 5.7527-5 5.7385-5 5.7244-5
 H, KJ/KG        298315.2 298553.9 294911.6 295174.2 295434.8 295693.5 295950.5 296205.7
 U, KJ/KG        262683.5 262837.4 260404.1 260580.3 260754.6 260927.2 261098.1 261267.3
 G, KJ/KG       -575898.2-577917.5-546063.4-548066.1-550069.3-552073.2-554077.7-556082.8
 S, KJ/(KG)(K)   201.8969 201.9519 200.2322 200.2946 200.3564 200.4177 200.4783 200.5385

 M, (1/n)           1.010    1.010    1.012    1.012    1.012    1.012    1.012    1.011
 (dLV/dLP)t      -1.00241 -1.00234 -1.00396 -1.00384 -1.00373 -1.00361 -1.00351 -1.00340
 (dLV/dLT)p        1.0311   1.0302   1.0526   1.0509   1.0493   1.0477   1.0461   1.0446
 Cp, KJ/(KG)(K)   23.9251  23.8163  26.3574  26.1582  25.9666  25.7824  25.6053  25.4349
 GAMMAs            1.5705   1.5732   1.5184   1.5223   1.5260   1.5297   1.5333   1.5368
 SON VEL,M/SEC     7480.7   7496.0   7238.6   7256.8   7274.8   7292.6   7310.2   7327.6

 TRANSPORT PROPERTIES (GASES ONLY)
   CONDUCTIVITY IN UNITS OF MILLIWATTS/(CM)(K)

 VISC,MILLIPOISE  0.48496  0.48581  0.47455  0.47535  0.47616  0.47697  0.47779  0.47860

  WITH EQUILIBRIUM REACTIONS

 Cp, KJ/(KG)(K)   23.9251  23.8163  26.3574  26.1582  25.9666  25.7824  25.6053  25.4349
 CONDUCTIVITY     17.8811  17.8170  19.5690  19.4327  19.3024  19.1779  19.0589  18.9453
 PRANDTL NUMBER    0.6489   0.6494   0.6392   0.6399   0.6406   0.6412   0.6419   0.6425

  WITH FROZEN REACTIONS

 Cp, KJ/(KG)(K)   20.6180  20.6182  20.6141  20.6145  20.6148  20.6151  20.6154  20.6156
 CONDUCTIVITY     14.9670  14.9941  14.6234  14.6499  14.6765  14.7032  14.7299  14.7566
 PRANDTL NUMBER    0.6681   0.6680   0.6690   0.6689   0.6688   0.6688   0.6687   0.6686

 MOLE FRACTIONS

 *H               0.99757  0.99764  0.99599  0.99611  0.99623  0.99634  0.99646  0.99656
 *H2              0.00243  0.00236  0.00401  0.00389  0.00377  0.00365  0.00354  0.00344

  * THERMODYNAMIC PROPERTIES FITTED TO 20000.K

 NOTE. WEIGHT FRACTION OF FUEL IN TOTAL FUELS AND OF OXIDANT IN TOTAL OXIDANTS









               THERMODYNAMIC EQUILIBRIUM PROPERTIES AT ASSIGNED

                           TEMPERATURE AND PRESSURE

 CASE =                

             REACTANT                    WT FRACTION      ENERGY      TEMP
                                          (SEE NOTE)     KJ/KG-MOL      K  
             H2                           1.0000000         0.000      0.000

 O/F=    0.00000  %FUEL=100.000000  R,EQ.RATIO= 0.000000  PHI,EQ.RATIO= 0.000000

 THERMODYNAMIC PROPERTIES

 P, BAR           0.02000  0.02000  0.02000  0.02000  0.02000  0.02000  0.02000  0.02000
 T, K             4260.00  4270.00  4280.00  4290.00  4300.00  4310.00  4320.00  4330.00
 RHO, KG/CU M    5.7103-5 5.6964-5 5.6825-5 5.6688-5 5.6551-5 5.6415-5 5.6279-5 5.6145-5
 H, KJ/KG        296459.2 296711.1 296961.5 297210.4 297457.8 297703.9 297948.6 298192.1
 U, KJ/KG        261435.0 261601.2 261766.0 261929.4 262091.4 262252.1 262411.6 262570.0
 G, KJ/KG       -558088.4-560094.7-562101.6-564109.0-566117.1-568125.7-570134.8-572144.6
 S, KJ/(KG)(K)   200.5980 200.6571 200.7157 200.7737 200.8314 200.8885 200.9452 201.0015

 M, (1/n)           1.011    1.011    1.011    1.011    1.011    1.011    1.011    1.011
 (dLV/dLP)t      -1.00330 -1.00320 -1.00311 -1.00302 -1.00293 -1.00284 -1.00276 -1.00268
 (dLV/dLT)p        1.0432   1.0418   1.0405   1.0392   1.0380   1.0368   1.0356   1.0345
 Cp, KJ/(KG)(K)   25.2710  25.1133  24.9616  24.8156  24.6751  24.5398  24.4097  24.2843
 GAMMAs            1.5403   1.5436   1.5469   1.5501   1.5533   1.5563   1.5593   1.5622
 SON VEL,M/SEC     7344.8   7361.8   7378.7   7395.3   7411.7   7428.0   7444.0   7459.9

 TRANSPORT PROPERTIES (GASES ONLY)
   CONDUCTIVITY IN UNITS OF MILLIWATTS/(CM)(K)

 VISC,MILLIPOISE  0.47942  0.48025  0.48107  0.48190  0.48273  0.48356  0.48439  0.48523

  WITH EQUILIBRIUM REACTIONS

 Cp, KJ/(KG)(K)   25.2710  25.1133  24.9616  24.8156  24.6751  24.5398  24.4097  24.2843
 CONDUCTIVITY     18.8368  18.7332  18.6343  18.5400  18.4500  18.3643  18.2825  18.2046
 PRANDTL NUMBER    0.6432   0.6438   0.6444   0.6450   0.6456   0.6462   0.6467   0.6473

  WITH FROZEN REACTIONS

 Cp, KJ/(KG)(K)   20.6159  20.6162  20.6164  20.6167  20.6169  20.6171  20.6173  20.6175
 CONDUCTIVITY     14.7833  14.8101  14.8369  14.8638  14.8906  14.9175  14.9444  14.9714
 PRANDTL NUMBER    0.6686   0.6685   0.6685   0.6684   0.6684   0.6683   0.6683   0.6682

 MOLE FRACTIONS

 *H               0.99667  0.99677  0.99686  0.99695  0.99704  0.99713  0.99722  0.99730
 *H2              0.00333  0.00323  0.00314  0.00304  0.00295  0.00287  0.00278  0.00270

  * THERMODYNAMIC PROPERTIES FITTED TO 20000.K

 NOTE. WEIGHT FRACTION OF FUEL IN TOTAL FUELS AND OF OXIDANT IN TOTAL OXIDANTS









               THERMODYNAMIC EQUILIBRIUM PROPERTIES AT ASSIGNED

                           TEMPERATURE AND PRESSURE

 CASE =                

             REACTANT                    WT FRACTION      ENERGY      TEMP
                                          (SEE NOTE)     KJ/KG-MOL      K  
             H2                           1.0000000         0.000      0.000

 O/F=    0.00000  %FUEL=100.000000  R,EQ.RATIO= 0.000000  PHI,EQ.RATIO= 0.000000

 THERMODYNAMIC PROPERTIES

 P, BAR           0.02000
 T, K             4340.00
 RHO, KG/CU M    5.6011-5
 H, KJ/KG        298434.3
 U, KJ/KG        262727.1
 G, KJ/KG       -574154.9
 S, KJ/(KG)(K)   201.0574

 M, (1/n)           1.011
 (dLV/dLP)t      -1.00260
 (dLV/dLT)p        1.0335
 Cp, KJ/(KG)(K)   24.1637
 GAMMAs            1.5651
 SON VEL,M/SEC     7475.6

 TRANSPORT PROPERTIES (GASES ONLY)
   CONDUCTIVITY IN UNITS OF MILLIWATTS/(CM)(K)

 VISC,MILLIPOISE  0.48606

  WITH EQUILIBRIUM REACTIONS

 Cp, KJ/(KG)(K)   24.1637
 CONDUCTIVITY     18.1305
 PRANDTL NUMBER    0.6478

  WITH FROZEN REACTIONS

 Cp, KJ/(KG)(K)   20.6177
 CONDUCTIVITY     14.9983
 PRANDTL NUMBER    0.6682

 MOLE FRACTIONS

 *H               0.99738
 *H2              0.00262

  * THERMODYNAMIC PROPERTIES FITTED TO 20000.K

 NOTE. WEIGHT FRACTION OF FUEL IN TOTAL FUELS AND OF OXIDANT IN TOTAL OXIDANTS



  
