
 *******************************************************************************

         NASA-GLENN CHEMICAL EQUILIBRIUM PROGRAM CEA2, MAY 21, 2004
                   BY  BONNIE MCBRIDE AND SANFORD GORDON
      REFS: NASA RP-1311, PART I, 1994 AND NASA RP-1311, PART II, 1996

 *******************************************************************************



  prob tp ions
  p,bar= 12.0,13.2,14.8,16.5,18.0,20.0,22.5,25.0,28.0,31.0,35.0,39.0,44.0,49.0,54
 .0
  t,k= 3600,3610,3620,3630,3640,3650,3660,3670,3680,3690,3700,3710,3720,3730,3740
  
  reac
  na H2                wt%=100.0000
  
  output short
  output siunits
  output transport
  
 end





               THERMODYNAMIC EQUILIBRIUM PROPERTIES AT ASSIGNED

                           TEMPERATURE AND PRESSURE

 CASE =                

             REACTANT                    WT FRACTION      ENERGY      TEMP
                                          (SEE NOTE)     KJ/KG-MOL      K  
             H2                           1.0000000         0.000      0.000

 O/F=    0.00000  %FUEL=100.000000  R,EQ.RATIO= 0.000000  PHI,EQ.RATIO= 0.000000

 THERMODYNAMIC PROPERTIES

 P, BAR            12.000   12.000   12.000   12.000   12.000   12.000   12.000   12.000
 T, K             3600.00  3610.00  3620.00  3630.00  3640.00  3650.00  3660.00  3670.00
 RHO, KG/CU M    7.3085-2 7.2734-2 7.2383-2 7.2033-2 7.1683-2 7.1333-2 7.0983-2 7.0634-2
 H, KJ/KG         79486.2  80195.7  80913.3  81639.1  82373.0  83115.1  83865.4  84624.0
 U, KJ/KG         63067.0  63697.2  64334.9  64980.0  65632.5  66292.5  66960.0  67635.0
 G, KJ/KG       -285612.4-286626.4-287643.4-288662.6-289683.7-290706.8-291732.0-292759.3
 S, KJ/(KG)(K)   101.4163 101.6128 101.8113 102.0115 102.2134 102.4170 102.6222 102.8292

 M, (1/n)           1.823    1.819    1.816    1.812    1.808    1.804    1.800    1.796
 (dLV/dLP)t      -1.04730 -1.04819 -1.04909 -1.04999 -1.05091 -1.05183 -1.05275 -1.05369
 (dLV/dLT)p        1.7300   1.7417   1.7534   1.7653   1.7772   1.7891   1.8011   1.8131
 Cp, KJ/(KG)(K)   70.5629  71.3638  72.1699  72.9811  73.7974  74.6184  75.4442  76.2745
 GAMMAs            1.1712   1.1711   1.1710   1.1709   1.1708   1.1708   1.1707   1.1707
 SON VEL,M/SEC     4385.2   4395.5   4406.0   4416.6   4427.2   4438.0   4448.8   4459.7

 TRANSPORT PROPERTIES (GASES ONLY)
   CONDUCTIVITY IN UNITS OF MILLIWATTS/(CM)(K)

 VISC,MILLIPOISE  0.57704  0.57906  0.58109  0.58312  0.58515  0.58717  0.58920  0.59123

  WITH EQUILIBRIUM REACTIONS

 Cp, KJ/(KG)(K)   70.5629  71.3638  72.1699  72.9811  73.7974  74.6184  75.4442  76.2745
 CONDUCTIVITY     85.6799  86.8394  88.0050  89.1759  90.3516  91.5318  92.7164  93.9048
 PRANDTL NUMBER    0.4752   0.4759   0.4765   0.4772   0.4779   0.4787   0.4794   0.4802

  WITH FROZEN REACTIONS

 Cp, KJ/(KG)(K)   19.1849  19.1971  19.2093  19.2216  19.2338  19.2460  19.2583  19.2705
 CONDUCTIVITY     15.9001  15.9631  16.0267  16.0903  16.1537  16.2171  16.2803  16.3433
 PRANDTL NUMBER    0.6962   0.6964   0.6965   0.6966   0.6967   0.6968   0.6970   0.6971

 MOLE FRACTIONS

 *H               0.19136  0.19505  0.19878  0.20255  0.20636  0.21021  0.21410  0.21802
 *H2              0.80863  0.80495  0.80122  0.79745  0.79364  0.78979  0.78590  0.78198

  * THERMODYNAMIC PROPERTIES FITTED TO 20000.K

 NOTE. WEIGHT FRACTION OF FUEL IN TOTAL FUELS AND OF OXIDANT IN TOTAL OXIDANTS









               THERMODYNAMIC EQUILIBRIUM PROPERTIES AT ASSIGNED

                           TEMPERATURE AND PRESSURE

 CASE =                

             REACTANT                    WT FRACTION      ENERGY      TEMP
                                          (SEE NOTE)     KJ/KG-MOL      K  
             H2                           1.0000000         0.000      0.000

 O/F=    0.00000  %FUEL=100.000000  R,EQ.RATIO= 0.000000  PHI,EQ.RATIO= 0.000000

 THERMODYNAMIC PROPERTIES

 P, BAR            12.000   12.000   12.000   12.000   12.000   12.000   12.000   13.200
 T, K             3680.00  3690.00  3700.00  3710.00  3720.00  3730.00  3740.00  3600.00
 RHO, KG/CU M    7.0285-2 6.9937-2 6.9589-2 6.9241-2 6.8894-2 6.8547-2 6.8201-2 8.0749-2
 H, KJ/KG         85390.9  86166.2  86949.9  87742.0  88542.6  89351.8  90169.5  78369.6
 U, KJ/KG         68317.6  69007.9  69705.7  70411.3  71124.6  71845.6  72574.4  62022.7
 G, KJ/KG       -293788.6-294820.0-295853.6-296889.3-297927.1-298967.1-300009.2-284049.8
 S, KJ/(KG)(K)   103.0379 103.2483 103.4604 103.6742 103.8897 104.1069 104.3259 100.6721

 M, (1/n)           1.792    1.788    1.784    1.780    1.776    1.772    1.767    1.831
 (dLV/dLP)t      -1.05463 -1.05558 -1.05654 -1.05750 -1.05847 -1.05945 -1.06043 -1.04537
 (dLV/dLT)p        1.8252   1.8373   1.8495   1.8617   1.8739   1.8862   1.8985   1.7002
 Cp, KJ/(KG)(K)   77.1093  77.9483  78.7913  79.6383  80.4890  81.3432  82.2008  68.2389
 GAMMAs            1.1707   1.1707   1.1707   1.1707   1.1707   1.1707   1.1707   1.1723
 SON VEL,M/SEC     4470.7   4481.8   4493.0   4504.3   4515.7   4527.1   4538.7   4377.6

 TRANSPORT PROPERTIES (GASES ONLY)
   CONDUCTIVITY IN UNITS OF MILLIWATTS/(CM)(K)

 VISC,MILLIPOISE  0.59326  0.59528  0.59731  0.59933  0.60135  0.60336  0.60537  0.57548

  WITH EQUILIBRIUM REACTIONS

 Cp, KJ/(KG)(K)   77.1093  77.9483  78.7913  79.6383  80.4890  81.3432  82.2008  68.2389
 CONDUCTIVITY     95.0968  96.2921  97.4904  98.6912  99.8942 101.0990 102.3053  82.7811
 PRANDTL NUMBER    0.4810   0.4819   0.4827   0.4836   0.4845   0.4855   0.4864   0.4744

  WITH FROZEN REACTIONS

 Cp, KJ/(KG)(K)   19.2827  19.2949  19.3071  19.3193  19.3315  19.3436  19.3558  19.1770
 CONDUCTIVITY     16.4062  16.4689  16.5314  16.5937  16.6558  16.7176  16.7791  15.8520
 PRANDTL NUMBER    0.6973   0.6974   0.6976   0.6978   0.6980   0.6981   0.6983   0.6962

 MOLE FRACTIONS

 *H               0.22199  0.22600  0.23004  0.23413  0.23825  0.24240  0.24660  0.18336
 *H2              0.77801  0.77400  0.76996  0.76587  0.76175  0.75760  0.75340  0.81664

  * THERMODYNAMIC PROPERTIES FITTED TO 20000.K

 NOTE. WEIGHT FRACTION OF FUEL IN TOTAL FUELS AND OF OXIDANT IN TOTAL OXIDANTS









               THERMODYNAMIC EQUILIBRIUM PROPERTIES AT ASSIGNED

                           TEMPERATURE AND PRESSURE

 CASE =                

             REACTANT                    WT FRACTION      ENERGY      TEMP
                                          (SEE NOTE)     KJ/KG-MOL      K  
             H2                           1.0000000         0.000      0.000

 O/F=    0.00000  %FUEL=100.000000  R,EQ.RATIO= 0.000000  PHI,EQ.RATIO= 0.000000

 THERMODYNAMIC PROPERTIES

 P, BAR            13.200   13.200   13.200   13.200   13.200   13.200   13.200   13.200
 T, K             3610.00  3620.00  3630.00  3640.00  3650.00  3660.00  3670.00  3680.00
 RHO, KG/CU M    8.0368-2 7.9987-2 7.9607-2 7.9227-2 7.8847-2 7.8467-2 7.8088-2 7.7709-2
 H, KJ/KG         79055.8  79749.8  80451.5  81161.0  81878.4  82603.7  83336.9  84078.2
 U, KJ/KG         62631.4  63247.1  63870.0  64499.9  65137.0  65781.4  66432.9  67091.8
 G, KJ/KG       -285057.4-286067.0-287078.5-288092.0-289107.4-290124.8-291144.1-292165.5
 S, KJ/(KG)(K)   100.8624 101.0544 101.2479 101.4431 101.6399 101.8384 102.0384 102.2401

 M, (1/n)           1.827    1.824    1.820    1.816    1.813    1.809    1.805    1.801
 (dLV/dLP)t      -1.04623 -1.04710 -1.04797 -1.04886 -1.04975 -1.05065 -1.05155 -1.05247
 (dLV/dLT)p        1.7115   1.7229   1.7343   1.7459   1.7574   1.7691   1.7808   1.7925
 Cp, KJ/(KG)(K)   69.0074  69.7812  70.5600  71.3439  72.1326  72.9261  73.7242  74.5268
 GAMMAs            1.1722   1.1721   1.1720   1.1719   1.1718   1.1718   1.1717   1.1717
 SON VEL,M/SEC     4387.8   4398.0   4408.3   4418.8   4429.2   4439.8   4450.5   4461.3

 TRANSPORT PROPERTIES (GASES ONLY)
   CONDUCTIVITY IN UNITS OF MILLIWATTS/(CM)(K)

 VISC,MILLIPOISE  0.57749  0.57951  0.58153  0.58355  0.58557  0.58760  0.58962  0.59164

  WITH EQUILIBRIUM REACTIONS

 Cp, KJ/(KG)(K)   69.0074  69.7812  70.5600  71.3439  72.1326  72.9261  73.7242  74.5268
 CONDUCTIVITY     83.9065  85.0379  86.1747  87.3168  88.4640  89.6158  90.7721  91.9324
 PRANDTL NUMBER    0.4749   0.4755   0.4762   0.4768   0.4775   0.4782   0.4789   0.4796

  WITH FROZEN REACTIONS

 Cp, KJ/(KG)(K)   19.1891  19.2013  19.2134  19.2255  19.2376  19.2497  19.2618  19.2739
 CONDUCTIVITY     15.9156  15.9793  16.0429  16.1064  16.1698  16.2331  16.2963  16.3594
 PRANDTL NUMBER    0.6963   0.6964   0.6965   0.6966   0.6967   0.6968   0.6969   0.6970

 MOLE FRACTIONS

 *H               0.18691  0.19050  0.19414  0.19781  0.20152  0.20528  0.20907  0.21290
 *H2              0.81309  0.80950  0.80586  0.80219  0.79848  0.79472  0.79093  0.78710

  * THERMODYNAMIC PROPERTIES FITTED TO 20000.K

 NOTE. WEIGHT FRACTION OF FUEL IN TOTAL FUELS AND OF OXIDANT IN TOTAL OXIDANTS









               THERMODYNAMIC EQUILIBRIUM PROPERTIES AT ASSIGNED

                           TEMPERATURE AND PRESSURE

 CASE =                

             REACTANT                    WT FRACTION      ENERGY      TEMP
                                          (SEE NOTE)     KJ/KG-MOL      K  
             H2                           1.0000000         0.000      0.000

 O/F=    0.00000  %FUEL=100.000000  R,EQ.RATIO= 0.000000  PHI,EQ.RATIO= 0.000000

 THERMODYNAMIC PROPERTIES

 P, BAR            13.200   13.200   13.200   13.200   13.200   13.200   14.800   14.800
 T, K             3690.00  3700.00  3710.00  3720.00  3730.00  3740.00  3600.00  3610.00
 RHO, KG/CU M    7.7331-2 7.6953-2 7.6576-2 7.6199-2 7.5822-2 7.5446-2 9.0997-2 9.0576-2
 H, KJ/KG         84827.5  85584.8  86350.4  87124.1  87906.0  88696.1  77095.8  77755.2
 U, KJ/KG         67758.0  68431.6  69112.5  69800.9  70496.8  71200.1  60831.5  61415.3
 G, KJ/KG       -293188.9-294214.4-295241.9-296271.5-297303.2-298337.0-282184.3-283183.2
 S, KJ/(KG)(K)   102.4435 102.6484 102.8551 103.0633 103.2732 103.4848  99.8000  99.9829

 M, (1/n)           1.797    1.793    1.789    1.785    1.781    1.777    1.840    1.837
 (dLV/dLP)t      -1.05339 -1.05432 -1.05525 -1.05620 -1.05715 -1.05810 -1.04314 -1.04396
 (dLV/dLT)p        1.8043   1.8161   1.8280   1.8399   1.8519   1.8638   1.6657   1.6766
 Cp, KJ/(KG)(K)   75.3338  76.1450  76.9602  77.7794  78.6022  79.4287  65.5788  66.3097
 GAMMAs            1.1717   1.1716   1.1716   1.1716   1.1716   1.1716   1.1737   1.1736
 SON VEL,M/SEC     4472.1   4483.0   4494.0   4505.1   4516.3   4527.6   4369.2   4379.1

 TRANSPORT PROPERTIES (GASES ONLY)
   CONDUCTIVITY IN UNITS OF MILLIWATTS/(CM)(K)

 VISC,MILLIPOISE  0.59367  0.59569  0.59771  0.59973  0.60175  0.60376  0.57362  0.57563

  WITH EQUILIBRIUM REACTIONS

 Cp, KJ/(KG)(K)   75.3338  76.1450  76.9602  77.7794  78.6022  79.4287  65.5788  66.3097
 CONDUCTIVITY     93.0967  94.2644  95.4353  96.6090  97.7853  98.9638  79.4289  80.5128
 PRANDTL NUMBER    0.4804   0.4812   0.4820   0.4828   0.4837   0.4846   0.4736   0.4741

  WITH FROZEN REACTIONS

 Cp, KJ/(KG)(K)   19.2860  19.2981  19.3102  19.3222  19.3343  19.3463  19.1681  19.1801
 CONDUCTIVITY     16.4223  16.4851  16.5477  16.6101  16.6723  16.7343  15.7952  15.8587
 PRANDTL NUMBER    0.6972   0.6973   0.6975   0.6977   0.6978   0.6980   0.6961   0.6962

 MOLE FRACTIONS

 *H               0.21676  0.22067  0.22461  0.22859  0.23261  0.23667  0.17414  0.17753
 *H2              0.78324  0.77933  0.77539  0.77141  0.76739  0.76333  0.82586  0.82247

  * THERMODYNAMIC PROPERTIES FITTED TO 20000.K

 NOTE. WEIGHT FRACTION OF FUEL IN TOTAL FUELS AND OF OXIDANT IN TOTAL OXIDANTS









               THERMODYNAMIC EQUILIBRIUM PROPERTIES AT ASSIGNED

                           TEMPERATURE AND PRESSURE

 CASE =                

             REACTANT                    WT FRACTION      ENERGY      TEMP
                                          (SEE NOTE)     KJ/KG-MOL      K  
             H2                           1.0000000         0.000      0.000

 O/F=    0.00000  %FUEL=100.000000  R,EQ.RATIO= 0.000000  PHI,EQ.RATIO= 0.000000

 THERMODYNAMIC PROPERTIES

 P, BAR            14.800   14.800   14.800   14.800   14.800   14.800   14.800   14.800
 T, K             3620.00  3630.00  3640.00  3650.00  3660.00  3670.00  3680.00  3690.00
 RHO, KG/CU M    9.0155-2 8.9735-2 8.9316-2 8.8896-2 8.8477-2 8.8059-2 8.7641-2 8.7223-2
 H, KJ/KG         78422.0  79096.2  79777.8  80466.8  81163.5  81867.7  82579.5  83299.0
 U, KJ/KG         62005.9  62603.2  63207.3  63818.2  64436.0  65060.7  65692.4  66331.0
 G, KJ/KG       -284183.9-285186.5-286191.0-287197.3-288205.6-289215.8-290227.8-291241.9
 S, KJ/(KG)(K)   100.1674 100.3534 100.5409 100.7299 100.9205 101.1126 101.3063 101.5016

 M, (1/n)           1.833    1.830    1.826    1.823    1.819    1.816    1.812    1.808
 (dLV/dLP)t      -1.04479 -1.04563 -1.04648 -1.04734 -1.04820 -1.04908 -1.04996 -1.05084
 (dLV/dLT)p        1.6875   1.6985   1.7096   1.7208   1.7320   1.7433   1.7546   1.7659
 Cp, KJ/(KG)(K)   67.0457  67.7868  68.5329  69.2839  70.0397  70.8001  71.5651  72.3345
 GAMMAs            1.1735   1.1734   1.1732   1.1732   1.1731   1.1730   1.1729   1.1729
 SON VEL,M/SEC     4389.0   4399.1   4409.2   4419.4   4429.7   4440.1   4450.6   4461.1

 TRANSPORT PROPERTIES (GASES ONLY)
   CONDUCTIVITY IN UNITS OF MILLIWATTS/(CM)(K)

 VISC,MILLIPOISE  0.57763  0.57964  0.58165  0.58366  0.58568  0.58769  0.58971  0.59173

  WITH EQUILIBRIUM REACTIONS

 Cp, KJ/(KG)(K)   67.0457  67.7868  68.5329  69.2839  70.0397  70.8001  71.5651  72.3345
 CONDUCTIVITY     81.6029  82.6988  83.8005  84.9075  86.0197  87.1368  88.2586  89.3847
 PRANDTL NUMBER    0.4746   0.4751   0.4757   0.4763   0.4769   0.4775   0.4782   0.4789

  WITH FROZEN REACTIONS

 Cp, KJ/(KG)(K)   19.1921  19.2041  19.2160  19.2280  19.2400  19.2520  19.2639  19.2759
 CONDUCTIVITY     15.9222  15.9858  16.0492  16.1127  16.1760  16.2393  16.3025  16.3656
 PRANDTL NUMBER    0.6963   0.6963   0.6964   0.6965   0.6966   0.6967   0.6968   0.6970

 MOLE FRACTIONS

 *H               0.18097  0.18444  0.18796  0.19151  0.19510  0.19873  0.20239  0.20610
 *H2              0.81903  0.81556  0.81204  0.80849  0.80490  0.80127  0.79761  0.79390

  * THERMODYNAMIC PROPERTIES FITTED TO 20000.K

 NOTE. WEIGHT FRACTION OF FUEL IN TOTAL FUELS AND OF OXIDANT IN TOTAL OXIDANTS









               THERMODYNAMIC EQUILIBRIUM PROPERTIES AT ASSIGNED

                           TEMPERATURE AND PRESSURE

 CASE =                

             REACTANT                    WT FRACTION      ENERGY      TEMP
                                          (SEE NOTE)     KJ/KG-MOL      K  
             H2                           1.0000000         0.000      0.000

 O/F=    0.00000  %FUEL=100.000000  R,EQ.RATIO= 0.000000  PHI,EQ.RATIO= 0.000000

 THERMODYNAMIC PROPERTIES

 P, BAR            14.800   14.800   14.800   14.800   14.800   16.500   16.500   16.500
 T, K             3700.00  3710.00  3720.00  3730.00  3740.00  3600.00  3610.00  3620.00
 RHO, KG/CU M    8.6806-2 8.6389-2 8.5973-2 8.5557-2 8.5142-2 1.0191-1 1.0145-1 1.0099-1
 H, KJ/KG         84026.2  84761.2  85503.9  86254.5  87013.0  75949.2  76584.4  77226.6
 U, KJ/KG         66976.7  67629.4  68289.2  68956.1  69630.2  59759.1  60320.6  60888.4
 G, KJ/KG       -292257.9-293275.9-294295.8-295317.8-296341.8-280419.9-281410.6-282403.2
 S, KJ/(KG)(K)   101.6984 101.8968 102.0967 102.2982 102.5013  98.9914  99.1676  99.3453

 M, (1/n)           1.804    1.801    1.797    1.793    1.789    1.849    1.846    1.842
 (dLV/dLP)t      -1.05174 -1.05264 -1.05355 -1.05447 -1.05539 -1.04110 -1.04189 -1.04269
 (dLV/dLT)p        1.7774   1.7888   1.8004   1.8119   1.8235   1.6343   1.6447   1.6553
 Cp, KJ/(KG)(K)   73.1082  73.8861  74.6680  75.4539  76.2435  63.1768  63.8732  64.5747
 GAMMAs            1.1728   1.1728   1.1728   1.1728   1.1728   1.1751   1.1750   1.1748
 SON VEL,M/SEC     4471.7   4482.5   4493.2   4504.1   4515.1   4361.8   4371.4   4381.2

 TRANSPORT PROPERTIES (GASES ONLY)
   CONDUCTIVITY IN UNITS OF MILLIWATTS/(CM)(K)

 VISC,MILLIPOISE  0.59374  0.59576  0.59778  0.59980  0.60181  0.57189  0.57388  0.57587

  WITH EQUILIBRIUM REACTIONS

 Cp, KJ/(KG)(K)   73.1082  73.8861  74.6680  75.4539  76.2435  63.1768  63.8732  64.5747
 CONDUCTIVITY     90.5150  91.6490  92.7866  93.9275  95.0712  76.3698  77.4145  78.4655
 PRANDTL NUMBER    0.4796   0.4803   0.4810   0.4818   0.4826   0.4731   0.4735   0.4739

  WITH FROZEN REACTIONS

 Cp, KJ/(KG)(K)   19.2878  19.2998  19.3117  19.3236  19.3355  19.1600  19.1719  19.1838
 CONDUCTIVITY     16.4286  16.4914  16.5541  16.6166  16.6790  15.7415  15.8048  15.8681
 PRANDTL NUMBER    0.6971   0.6972   0.6974   0.6975   0.6977   0.6961   0.6961   0.6962

 MOLE FRACTIONS

 *H               0.20984  0.21362  0.21744  0.22129  0.22518  0.16576  0.16901  0.17230
 *H2              0.79016  0.78638  0.78256  0.77871  0.77482  0.83424  0.83099  0.82770

  * THERMODYNAMIC PROPERTIES FITTED TO 20000.K

 NOTE. WEIGHT FRACTION OF FUEL IN TOTAL FUELS AND OF OXIDANT IN TOTAL OXIDANTS









               THERMODYNAMIC EQUILIBRIUM PROPERTIES AT ASSIGNED

                           TEMPERATURE AND PRESSURE

 CASE =                

             REACTANT                    WT FRACTION      ENERGY      TEMP
                                          (SEE NOTE)     KJ/KG-MOL      K  
             H2                           1.0000000         0.000      0.000

 O/F=    0.00000  %FUEL=100.000000  R,EQ.RATIO= 0.000000  PHI,EQ.RATIO= 0.000000

 THERMODYNAMIC PROPERTIES

 P, BAR            16.500   16.500   16.500   16.500   16.500   16.500   16.500   16.500
 T, K             3630.00  3640.00  3650.00  3660.00  3670.00  3680.00  3690.00  3700.00
 RHO, KG/CU M    1.0053-1 1.0007-1 9.9607-2 9.9147-2 9.8687-2 9.8227-2 9.7769-2 9.7310-2
 H, KJ/KG         77875.9  78532.3  79195.8  79866.5  80544.4  81229.6  81922.1  82622.0
 U, KJ/KG         61462.7  62043.4  62630.6  63224.4  63824.8  64431.8  65045.5  65665.9
 G, KJ/KG       -283397.6-284393.7-285391.7-286391.4-287393.1-288396.6-289401.9-290409.2
 S, KJ/(KG)(K)    99.5244  99.7049  99.8870 100.0705 100.2554 100.4419 100.6298 100.8192

 M, (1/n)           1.839    1.835    1.832    1.829    1.825    1.822    1.818    1.814
 (dLV/dLP)t      -1.04350 -1.04432 -1.04514 -1.04597 -1.04681 -1.04766 -1.04851 -1.04938
 (dLV/dLT)p        1.6659   1.6765   1.6873   1.6981   1.7089   1.7199   1.7308   1.7419
 Cp, KJ/(KG)(K)   65.2811  65.9926  66.7088  67.4299  68.1555  68.8858  69.6204  70.3595
 GAMMAs            1.1747   1.1746   1.1745   1.1744   1.1743   1.1742   1.1741   1.1740
 SON VEL,M/SEC     4391.0   4400.8   4410.8   4420.8   4430.9   4441.1   4451.4   4461.7

 TRANSPORT PROPERTIES (GASES ONLY)
   CONDUCTIVITY IN UNITS OF MILLIWATTS/(CM)(K)

 VISC,MILLIPOISE  0.57786  0.57986  0.58186  0.58386  0.58587  0.58788  0.58988  0.59189

  WITH EQUILIBRIUM REACTIONS

 Cp, KJ/(KG)(K)   65.2811  65.9926  66.7088  67.4298  68.1555  68.8858  69.6204  70.3595
 CONDUCTIVITY     79.5227  80.5858  81.6547  82.7291  83.8088  84.8935  85.9830  87.0771
 PRANDTL NUMBER    0.4744   0.4749   0.4754   0.4759   0.4764   0.4770   0.4776   0.4783

  WITH FROZEN REACTIONS

 Cp, KJ/(KG)(K)   19.1956  19.2075  19.2194  19.2312  19.2431  19.2549  19.2667  19.2786
 CONDUCTIVITY     15.9315  15.9948  16.0582  16.1215  16.1847  16.2479  16.3111  16.3741
 PRANDTL NUMBER    0.6963   0.6963   0.6964   0.6965   0.6966   0.6967   0.6968   0.6969

 MOLE FRACTIONS

 *H               0.17563  0.17899  0.18239  0.18584  0.18931  0.19283  0.19638  0.19998
 *H2              0.82437  0.82101  0.81761  0.81416  0.81069  0.80717  0.80362  0.80002

  * THERMODYNAMIC PROPERTIES FITTED TO 20000.K

 NOTE. WEIGHT FRACTION OF FUEL IN TOTAL FUELS AND OF OXIDANT IN TOTAL OXIDANTS









               THERMODYNAMIC EQUILIBRIUM PROPERTIES AT ASSIGNED

                           TEMPERATURE AND PRESSURE

 CASE =                

             REACTANT                    WT FRACTION      ENERGY      TEMP
                                          (SEE NOTE)     KJ/KG-MOL      K  
             H2                           1.0000000         0.000      0.000

 O/F=    0.00000  %FUEL=100.000000  R,EQ.RATIO= 0.000000  PHI,EQ.RATIO= 0.000000

 THERMODYNAMIC PROPERTIES

 P, BAR            16.500   16.500   16.500   16.500   18.000   18.000   18.000   18.000
 T, K             3710.00  3720.00  3730.00  3740.00  3600.00  3610.00  3620.00  3630.00
 RHO, KG/CU M    9.6852-2 9.6395-2 9.5938-2 9.5482-2 1.1157-1 1.1107-1 1.1057-1 1.1008-1
 H, KJ/KG         83329.3  84044.1  84766.3  85496.1  75074.4  75691.1  76314.6  76944.8
 U, KJ/KG         66293.1  66927.0  67567.8  68215.4  58941.0  59485.3  60035.8  60592.4
 G, KJ/KG       -291418.3-292429.4-293442.4-294457.3-279013.7-279998.1-280984.2-281972.1
 S, KJ/(KG)(K)   101.0101 101.2025 101.3964 101.5918  98.3578  98.5289  98.7013  98.8752

 M, (1/n)           1.811    1.807    1.803    1.799    1.855    1.852    1.849    1.846
 (dLV/dLP)t      -1.05025 -1.05112 -1.05201 -1.05290 -1.03953 -1.04030 -1.04107 -1.04185
 (dLV/dLT)p        1.7530   1.7641   1.7753   1.7865   1.6100   1.6201   1.6303   1.6406
 Cp, KJ/(KG)(K)   71.1027  71.8501  72.6015  73.3568  61.3398  62.0095  62.6842  63.3639
 GAMMAs            1.1740   1.1739   1.1739   1.1739   1.1763   1.1761   1.1759   1.1758
 SON VEL,M/SEC     4472.2   4482.7   4493.3   4504.0   4356.3   4365.7   4375.3   4384.9

 TRANSPORT PROPERTIES (GASES ONLY)
   CONDUCTIVITY IN UNITS OF MILLIWATTS/(CM)(K)

 VISC,MILLIPOISE  0.59391  0.59592  0.59793  0.59994  0.57052  0.57249  0.57447  0.57645

  WITH EQUILIBRIUM REACTIONS

 Cp, KJ/(KG)(K)   71.1027  71.8501  72.6015  73.3568  61.3398  62.0095  62.6842  63.3639
 CONDUCTIVITY     88.1755  89.2779  90.3842  91.4939  74.0095  75.0230  76.0431  77.0695
 PRANDTL NUMBER    0.4789   0.4796   0.4803   0.4810   0.4729   0.4732   0.4736   0.4739

  WITH FROZEN REACTIONS

 Cp, KJ/(KG)(K)   19.2904  19.3022  19.3140  19.3258  19.1539  19.1657  19.1775  19.1892
 CONDUCTIVITY     16.4371  16.5000  16.5627  16.6253  15.6988  15.7619  15.8250  15.8882
 PRANDTL NUMBER    0.6970   0.6971   0.6973   0.6974   0.6961   0.6961   0.6962   0.6962

 MOLE FRACTIONS

 *H               0.20360  0.20727  0.21097  0.21470  0.15931  0.16245  0.16563  0.16884
 *H2              0.79640  0.79273  0.78903  0.78530  0.84069  0.83755  0.83437  0.83116

  * THERMODYNAMIC PROPERTIES FITTED TO 20000.K

 NOTE. WEIGHT FRACTION OF FUEL IN TOTAL FUELS AND OF OXIDANT IN TOTAL OXIDANTS









               THERMODYNAMIC EQUILIBRIUM PROPERTIES AT ASSIGNED

                           TEMPERATURE AND PRESSURE

 CASE =                

             REACTANT                    WT FRACTION      ENERGY      TEMP
                                          (SEE NOTE)     KJ/KG-MOL      K  
             H2                           1.0000000         0.000      0.000

 O/F=    0.00000  %FUEL=100.000000  R,EQ.RATIO= 0.000000  PHI,EQ.RATIO= 0.000000

 THERMODYNAMIC PROPERTIES

 P, BAR            18.000   18.000   18.000   18.000   18.000   18.000   18.000   18.000
 T, K             3640.00  3650.00  3660.00  3670.00  3680.00  3690.00  3700.00  3710.00
 RHO, KG/CU M    1.0958-1 1.0908-1 1.0859-1 1.0809-1 1.0759-1 1.0710-1 1.0661-1 1.0611-1
 H, KJ/KG         77581.9  78225.8  78876.7  79534.5  80199.3  80871.1  81550.1  82236.2
 U, KJ/KG         61155.3  61724.4  62299.8  62881.6  63469.7  64064.3  64665.4  65272.9
 G, KJ/KG       -282961.7-283953.1-284946.3-285941.2-286937.9-287936.5-288936.9-289939.2
 S, KJ/(KG)(K)    99.0504  99.2271  99.4052  99.5846  99.7655  99.9479 100.1316 100.3168

 M, (1/n)           1.842    1.839    1.836    1.832    1.829    1.825    1.822    1.818
 (dLV/dLP)t      -1.04264 -1.04344 -1.04425 -1.04506 -1.04588 -1.04671 -1.04755 -1.04839
 (dLV/dLT)p        1.6510   1.6614   1.6719   1.6824   1.6930   1.7037   1.7144   1.7252
 Cp, KJ/(KG)(K)   64.0484  64.7378  65.4318  66.1305  66.8337  67.5413  68.2533  68.9695
 GAMMAs            1.1757   1.1755   1.1754   1.1753   1.1752   1.1751   1.1750   1.1750
 SON VEL,M/SEC     4394.5   4404.3   4414.1   4424.0   4434.0   4444.1   4454.2   4464.5

 TRANSPORT PROPERTIES (GASES ONLY)
   CONDUCTIVITY IN UNITS OF MILLIWATTS/(CM)(K)

 VISC,MILLIPOISE  0.57844  0.58043  0.58242  0.58442  0.58642  0.58842  0.59042  0.59243

  WITH EQUILIBRIUM REACTIONS

 Cp, KJ/(KG)(K)   64.0484  64.7378  65.4318  66.1305  66.8336  67.5413  68.2533  68.9695
 CONDUCTIVITY     78.1020  79.1404  80.1846  81.2342  82.2892  83.3493  84.4142  85.4838
 PRANDTL NUMBER    0.4744   0.4748   0.4753   0.4758   0.4763   0.4768   0.4774   0.4780

  WITH FROZEN REACTIONS

 Cp, KJ/(KG)(K)   19.2010  19.2128  19.2245  19.2363  19.2480  19.2598  19.2715  19.2832
 CONDUCTIVITY     15.9514  16.0146  16.0778  16.1410  16.2041  16.2672  16.3303  16.3933
 PRANDTL NUMBER    0.6963   0.6963   0.6964   0.6965   0.6966   0.6967   0.6968   0.6969

 MOLE FRACTIONS

 *H               0.17209  0.17538  0.17870  0.18206  0.18546  0.18890  0.19237  0.19588
 *H2              0.82791  0.82462  0.82130  0.81794  0.81454  0.81110  0.80763  0.80412

  * THERMODYNAMIC PROPERTIES FITTED TO 20000.K

 NOTE. WEIGHT FRACTION OF FUEL IN TOTAL FUELS AND OF OXIDANT IN TOTAL OXIDANTS









               THERMODYNAMIC EQUILIBRIUM PROPERTIES AT ASSIGNED

                           TEMPERATURE AND PRESSURE

 CASE =                

             REACTANT                    WT FRACTION      ENERGY      TEMP
                                          (SEE NOTE)     KJ/KG-MOL      K  
             H2                           1.0000000         0.000      0.000

 O/F=    0.00000  %FUEL=100.000000  R,EQ.RATIO= 0.000000  PHI,EQ.RATIO= 0.000000

 THERMODYNAMIC PROPERTIES

 P, BAR            18.000   18.000   18.000   20.000   20.000   20.000   20.000   20.000
 T, K             3720.00  3730.00  3740.00  3600.00  3610.00  3620.00  3630.00  3640.00
 RHO, KG/CU M    1.0562-1 1.0513-1 1.0463-1 1.2447-1 1.2393-1 1.2338-1 1.2283-1 1.2229-1
 H, KJ/KG         82929.5  83630.0  84337.8  74063.7  74659.1  75260.8  75869.0  76483.7
 U, KJ/KG         65887.0  66507.7  67134.9  57995.9  58520.3  59050.6  59586.8  60129.0
 G, KJ/KG       -290943.3-291949.2-292957.1-277317.3-278294.2-279272.7-280252.9-281234.8
 S, KJ/(KG)(K)   100.5034 100.6915 100.8810  97.6058  97.7710  97.9374  98.1052  98.2743

 M, (1/n)           1.815    1.811    1.808    1.863    1.860    1.857    1.854    1.851
 (dLV/dLP)t      -1.04924 -1.05010 -1.05097 -1.03770 -1.03843 -1.03917 -1.03993 -1.04068
 (dLV/dLT)p        1.7360   1.7469   1.7578   1.5817   1.5915   1.6013   1.6111   1.6211
 Cp, KJ/(KG)(K)   69.6899  70.4144  71.1428  59.2129  59.8514  60.4948  61.1431  61.7961
 GAMMAs            1.1749   1.1749   1.1748   1.1777   1.1775   1.1773   1.1772   1.1770
 SON VEL,M/SEC     4474.8   4485.1   4495.6   4350.1   4359.3   4368.6   4378.0   4387.4

 TRANSPORT PROPERTIES (GASES ONLY)
   CONDUCTIVITY IN UNITS OF MILLIWATTS/(CM)(K)

 VISC,MILLIPOISE  0.59443  0.59644  0.59845  0.56889  0.57085  0.57281  0.57478  0.57675

  WITH EQUILIBRIUM REACTIONS

 Cp, KJ/(KG)(K)   69.6899  70.4144  71.1427  59.2129  59.8514  60.4948  61.1431  61.7961
 CONDUCTIVITY     86.5578  87.6359  88.7180  71.2539  72.2303  73.2133  74.2027  75.1984
 PRANDTL NUMBER    0.4786   0.4792   0.4799   0.4728   0.4730   0.4733   0.4736   0.4740

  WITH FROZEN REACTIONS

 Cp, KJ/(KG)(K)   19.2949  19.3066  19.3183  19.1468  19.1585  19.1701  19.1818  19.1935
 CONDUCTIVITY     16.4562  16.5190  16.5818  15.6475  15.7103  15.7732  15.8361  15.8990
 PRANDTL NUMBER    0.6970   0.6971   0.6972   0.6961   0.6961   0.6962   0.6962   0.6963

 MOLE FRACTIONS

 *H               0.19942  0.20300  0.20662  0.15181  0.15482  0.15786  0.16093  0.16405
 *H2              0.80058  0.79700  0.79338  0.84819  0.84518  0.84214  0.83907  0.83595

  * THERMODYNAMIC PROPERTIES FITTED TO 20000.K

 NOTE. WEIGHT FRACTION OF FUEL IN TOTAL FUELS AND OF OXIDANT IN TOTAL OXIDANTS









               THERMODYNAMIC EQUILIBRIUM PROPERTIES AT ASSIGNED

                           TEMPERATURE AND PRESSURE

 CASE =                

             REACTANT                    WT FRACTION      ENERGY      TEMP
                                          (SEE NOTE)     KJ/KG-MOL      K  
             H2                           1.0000000         0.000      0.000

 O/F=    0.00000  %FUEL=100.000000  R,EQ.RATIO= 0.000000  PHI,EQ.RATIO= 0.000000

 THERMODYNAMIC PROPERTIES

 P, BAR            20.000   20.000   20.000   20.000   20.000   20.000   20.000   20.000
 T, K             3650.00  3660.00  3670.00  3680.00  3690.00  3700.00  3710.00  3720.00
 RHO, KG/CU M    1.2174-1 1.2120-1 1.2066-1 1.2012-1 1.1957-1 1.1903-1 1.1849-1 1.1795-1
 H, KJ/KG         77104.9  77732.8  78367.3  79008.4  79656.4  80311.1  80972.6  81641.0
 U, KJ/KG         60677.1  61231.2  61791.4  62357.7  62930.2  63508.8  64093.6  64684.7
 G, KJ/KG       -282218.4-283203.7-284190.7-285179.5-286170.0-287162.3-288156.4-289152.2
 S, KJ/(KG)(K)    98.4447  98.6165  98.7896  98.9641  99.1399  99.3171  99.4957  99.6756

 M, (1/n)           1.847    1.844    1.841    1.838    1.834    1.831    1.828    1.824
 (dLV/dLP)t      -1.04145 -1.04223 -1.04301 -1.04380 -1.04460 -1.04541 -1.04622 -1.04704
 (dLV/dLT)p        1.6311   1.6412   1.6514   1.6616   1.6719   1.6822   1.6926   1.7031
 Cp, KJ/(KG)(K)   62.4539  63.1162  63.7832  64.4546  65.1304  65.8106  66.4950  67.1835
 GAMMAs            1.1769   1.1767   1.1766   1.1765   1.1764   1.1763   1.1762   1.1761
 SON VEL,M/SEC     4397.0   4406.6   4416.2   4426.0   4435.8   4445.7   4455.7   4465.7

 TRANSPORT PROPERTIES (GASES ONLY)
   CONDUCTIVITY IN UNITS OF MILLIWATTS/(CM)(K)

 VISC,MILLIPOISE  0.57872  0.58070  0.58268  0.58467  0.58666  0.58865  0.59064  0.59264

  WITH EQUILIBRIUM REACTIONS

 Cp, KJ/(KG)(K)   62.4539  63.1162  63.7832  64.4546  65.1304  65.8106  66.4950  67.1835
 CONDUCTIVITY     76.2003  77.2080  78.2215  79.2406  80.2650  81.2946  82.3291  83.3684
 PRANDTL NUMBER    0.4743   0.4747   0.4751   0.4756   0.4760   0.4765   0.4770   0.4776

  WITH FROZEN REACTIONS

 Cp, KJ/(KG)(K)   19.2051  19.2168  19.2284  19.2401  19.2517  19.2633  19.2749  19.2865
 CONDUCTIVITY     15.9620  16.0250  16.0880  16.1511  16.2141  16.2770  16.3400  16.4029
 PRANDTL NUMBER    0.6963   0.6964   0.6964   0.6965   0.6966   0.6966   0.6967   0.6968

 MOLE FRACTIONS

 *H               0.16720  0.17039  0.17361  0.17687  0.18017  0.18350  0.18686  0.19027
 *H2              0.83280  0.82961  0.82639  0.82313  0.81983  0.81650  0.81314  0.80973

  * THERMODYNAMIC PROPERTIES FITTED TO 20000.K

 NOTE. WEIGHT FRACTION OF FUEL IN TOTAL FUELS AND OF OXIDANT IN TOTAL OXIDANTS









               THERMODYNAMIC EQUILIBRIUM PROPERTIES AT ASSIGNED

                           TEMPERATURE AND PRESSURE

 CASE =                

             REACTANT                    WT FRACTION      ENERGY      TEMP
                                          (SEE NOTE)     KJ/KG-MOL      K  
             H2                           1.0000000         0.000      0.000

 O/F=    0.00000  %FUEL=100.000000  R,EQ.RATIO= 0.000000  PHI,EQ.RATIO= 0.000000

 THERMODYNAMIC PROPERTIES

 P, BAR            20.000   20.000   22.500   22.500   22.500   22.500   22.500   22.500
 T, K             3730.00  3740.00  3600.00  3610.00  3620.00  3630.00  3640.00  3650.00
 RHO, KG/CU M    1.1741-1 1.1687-1 1.4064-1 1.4003-1 1.3943-1 1.3882-1 1.3822-1 1.3762-1
 H, KJ/KG         82316.3  82998.5  72994.0  73566.6  74145.3  74730.0  75321.0  75918.2
 U, KJ/KG         65282.0  65885.7  56995.5  57498.9  58007.8  58522.3  59042.5  59568.3
 G, KJ/KG       -290149.9-291149.4-275428.9-276397.5-277367.7-278339.6-279313.0-280288.1
 S, KJ/(KG)(K)    99.8569 100.0395  96.7841  96.9430  97.1030  97.2644  97.4269  97.5908

 M, (1/n)           1.821    1.817    1.871    1.868    1.865    1.862    1.859    1.856
 (dLV/dLP)t      -1.04787 -1.04870 -1.03573 -1.03644 -1.03715 -1.03786 -1.03859 -1.03932
 (dLV/dLT)p        1.7136   1.7241   1.5514   1.5608   1.5701   1.5796   1.5891   1.5987
 Cp, KJ/(KG)(K)   67.8762  68.5727  56.9565  57.5616  58.1714  58.7860  59.4052  60.0290
 GAMMAs            1.1760   1.1760   1.1793   1.1791   1.1789   1.1788   1.1786   1.1784
 SON VEL,M/SEC     4475.8   4486.0   4343.7   4352.7   4361.8   4370.9   4380.1   4389.4

 TRANSPORT PROPERTIES (GASES ONLY)
   CONDUCTIVITY IN UNITS OF MILLIWATTS/(CM)(K)

 VISC,MILLIPOISE  0.59464  0.59664  0.56711  0.56904  0.57099  0.57293  0.57489  0.57684

  WITH EQUILIBRIUM REACTIONS

 Cp, KJ/(KG)(K)   67.8762  68.5727  56.9565  57.5616  58.1714  58.7860  59.4052  60.0290
 CONDUCTIVITY     84.4123  85.4604  68.3036  69.2392  70.1814  71.1302  72.0854  73.0468
 PRANDTL NUMBER    0.4782   0.4787   0.4729   0.4731   0.4733   0.4735   0.4738   0.4740

  WITH FROZEN REACTIONS

 Cp, KJ/(KG)(K)   19.2981  19.3097  19.1393  19.1508  19.1624  19.1740  19.1855  19.1971
 CONDUCTIVITY     16.4658  16.5285  15.5910  15.6534  15.7158  15.7784  15.8410  15.9037
 PRANDTL NUMBER    0.6969   0.6970   0.6962   0.6962   0.6962   0.6962   0.6963   0.6963

 MOLE FRACTIONS

 *H               0.19371  0.19718  0.14380  0.14666  0.14956  0.15249  0.15546  0.15846
 *H2              0.80629  0.80282  0.85620  0.85334  0.85044  0.84751  0.84454  0.84154

  * THERMODYNAMIC PROPERTIES FITTED TO 20000.K

 NOTE. WEIGHT FRACTION OF FUEL IN TOTAL FUELS AND OF OXIDANT IN TOTAL OXIDANTS









               THERMODYNAMIC EQUILIBRIUM PROPERTIES AT ASSIGNED

                           TEMPERATURE AND PRESSURE

 CASE =                

             REACTANT                    WT FRACTION      ENERGY      TEMP
                                          (SEE NOTE)     KJ/KG-MOL      K  
             H2                           1.0000000         0.000      0.000

 O/F=    0.00000  %FUEL=100.000000  R,EQ.RATIO= 0.000000  PHI,EQ.RATIO= 0.000000

 THERMODYNAMIC PROPERTIES

 P, BAR            22.500   22.500   22.500   22.500   22.500   22.500   22.500   22.500
 T, K             3660.00  3670.00  3680.00  3690.00  3700.00  3710.00  3720.00  3730.00
 RHO, KG/CU M    1.3701-1 1.3641-1 1.3581-1 1.3521-1 1.3461-1 1.3401-1 1.3341-1 1.3281-1
 H, KJ/KG         76521.6  77131.3  77747.4  78369.9  78998.8  79634.2  80276.1  80924.6
 U, KJ/KG         60099.8  60637.1  61180.2  61729.1  62283.9  62844.5  63411.1  63983.7
 G, KJ/KG       -281264.9-282243.2-283223.3-284205.0-285188.5-286173.6-287160.5-288149.1
 S, KJ/(KG)(K)    97.7559  97.9222  98.0899  98.2588  98.4290  98.6005  98.7733  98.9474

 M, (1/n)           1.853    1.850    1.847    1.844    1.840    1.837    1.834    1.831
 (dLV/dLP)t      -1.04006 -1.04081 -1.04157 -1.04233 -1.04311 -1.04389 -1.04467 -1.04547
 (dLV/dLT)p        1.6084   1.6181   1.6279   1.6377   1.6477   1.6576   1.6677   1.6778
 Cp, KJ/(KG)(K)   60.6573  61.2901  61.9273  62.5688  63.2146  63.8646  64.5187  65.1769
 GAMMAs            1.1783   1.1781   1.1780   1.1778   1.1777   1.1776   1.1775   1.1774
 SON VEL,M/SEC     4398.7   4408.2   4417.6   4427.2   4436.8   4446.5   4456.3   4466.2

 TRANSPORT PROPERTIES (GASES ONLY)
   CONDUCTIVITY IN UNITS OF MILLIWATTS/(CM)(K)

 VISC,MILLIPOISE  0.57880  0.58077  0.58274  0.58471  0.58669  0.58867  0.59065  0.59264

  WITH EQUILIBRIUM REACTIONS

 Cp, KJ/(KG)(K)   60.6573  61.2901  61.9273  62.5688  63.2146  63.8646  64.5187  65.1769
 CONDUCTIVITY     74.0143  74.9877  75.9669  76.9517  77.9419  78.9374  79.9378  80.9432
 PRANDTL NUMBER    0.4744   0.4747   0.4750   0.4754   0.4758   0.4763   0.4767   0.4772

  WITH FROZEN REACTIONS

 Cp, KJ/(KG)(K)   19.2086  19.2201  19.2317  19.2432  19.2547  19.2662  19.2776  19.2891
 CONDUCTIVITY     15.9664  16.0291  16.0919  16.1547  16.2175  16.2804  16.3432  16.4059
 PRANDTL NUMBER    0.6963   0.6964   0.6964   0.6965   0.6966   0.6966   0.6967   0.6968

 MOLE FRACTIONS

 *H               0.16150  0.16457  0.16768  0.17083  0.17401  0.17722  0.18047  0.18375
 *H2              0.83850  0.83543  0.83232  0.82917  0.82599  0.82278  0.81953  0.81625

  * THERMODYNAMIC PROPERTIES FITTED TO 20000.K

 NOTE. WEIGHT FRACTION OF FUEL IN TOTAL FUELS AND OF OXIDANT IN TOTAL OXIDANTS









               THERMODYNAMIC EQUILIBRIUM PROPERTIES AT ASSIGNED

                           TEMPERATURE AND PRESSURE

 CASE =                

             REACTANT                    WT FRACTION      ENERGY      TEMP
                                          (SEE NOTE)     KJ/KG-MOL      K  
             H2                           1.0000000         0.000      0.000

 O/F=    0.00000  %FUEL=100.000000  R,EQ.RATIO= 0.000000  PHI,EQ.RATIO= 0.000000

 THERMODYNAMIC PROPERTIES

 P, BAR            22.500   25.000   25.000   25.000   25.000   25.000   25.000   25.000
 T, K             3740.00  3600.00  3610.00  3620.00  3630.00  3640.00  3650.00  3660.00
 RHO, KG/CU M    1.3222-1 1.5684-1 1.5618-1 1.5551-1 1.5485-1 1.5419-1 1.5353-1 1.5287-1
 H, KJ/KG         81579.7  72088.1  72641.4  73200.5  73765.4  74336.2  74913.0  75495.6
 U, KJ/KG         64562.3  56148.3  56633.8  57124.6  57620.7  58122.2  58629.1  59141.5
 G, KJ/KG       -289139.4-273746.4-274707.8-275670.8-276635.3-277601.3-278569.0-279538.2
 S, KJ/(KG)(K)    99.1228  96.0652  96.2186  96.3733  96.5291  96.6861  96.8444  97.0038

 M, (1/n)           1.827    1.878    1.875    1.872    1.869    1.867    1.864    1.861
 (dLV/dLP)t      -1.04627 -1.03406 -1.03473 -1.03541 -1.03610 -1.03679 -1.03750 -1.03821
 (dLV/dLT)p        1.6879   1.5255   1.5345   1.5435   1.5526   1.5617   1.5709   1.5802
 Cp, KJ/(KG)(K)   65.8390  55.0418  55.6183  56.1994  56.7850  57.3752  57.9698  58.5689
 GAMMAs            1.1773   1.1809   1.1806   1.1804   1.1802   1.1800   1.1798   1.1797
 SON VEL,M/SEC     4476.1   4338.5   4347.3   4356.2   4365.1   4374.1   4383.2   4392.3

 TRANSPORT PROPERTIES (GASES ONLY)
   CONDUCTIVITY IN UNITS OF MILLIWATTS/(CM)(K)

 VISC,MILLIPOISE  0.59463  0.56555  0.56747  0.56939  0.57132  0.57326  0.57520  0.57714

  WITH EQUILIBRIUM REACTIONS

 Cp, KJ/(KG)(K)   65.8390  55.0418  55.6183  56.1994  56.7850  57.3752  57.9698  58.5689
 CONDUCTIVITY     81.9532  65.7782  66.6780  67.5846  68.4977  69.4172  70.3431  71.2751
 PRANDTL NUMBER    0.4777   0.4732   0.4733   0.4735   0.4736   0.4738   0.4740   0.4743

  WITH FROZEN REACTIONS

 Cp, KJ/(KG)(K)   19.3006  19.1329  19.1444  19.1559  19.1673  19.1788  19.1902  19.2017
 CONDUCTIVITY     16.4687  15.5413  15.6032  15.6653  15.7274  15.7897  15.8520  15.9144
 PRANDTL NUMBER    0.6969   0.6963   0.6963   0.6963   0.6963   0.6963   0.6963   0.6964

 MOLE FRACTIONS

 *H               0.18707  0.13697  0.13970  0.14247  0.14528  0.14812  0.15100  0.15391
 *H2              0.81293  0.86303  0.86030  0.85753  0.85472  0.85188  0.84900  0.84609

  * THERMODYNAMIC PROPERTIES FITTED TO 20000.K

 NOTE. WEIGHT FRACTION OF FUEL IN TOTAL FUELS AND OF OXIDANT IN TOTAL OXIDANTS









               THERMODYNAMIC EQUILIBRIUM PROPERTIES AT ASSIGNED

                           TEMPERATURE AND PRESSURE

 CASE =                

             REACTANT                    WT FRACTION      ENERGY      TEMP
                                          (SEE NOTE)     KJ/KG-MOL      K  
             H2                           1.0000000         0.000      0.000

 O/F=    0.00000  %FUEL=100.000000  R,EQ.RATIO= 0.000000  PHI,EQ.RATIO= 0.000000

 THERMODYNAMIC PROPERTIES

 P, BAR            25.000   25.000   25.000   25.000   25.000   25.000   25.000   25.000
 T, K             3670.00  3680.00  3690.00  3700.00  3710.00  3720.00  3730.00  3740.00
 RHO, KG/CU M    1.5221-1 1.5155-1 1.5089-1 1.5023-1 1.4958-1 1.4892-1 1.4826-1 1.4761-1
 H, KJ/KG         76084.3  76679.1  77280.0  77887.0  78500.1  79119.5  79745.2  80377.2
 U, KJ/KG         59659.3  60182.6  60711.5  61246.0  61786.2  62332.0  62883.5  63440.7
 G, KJ/KG       -280509.1-281481.5-282455.6-283431.3-284408.7-285387.7-286368.4-287350.8
 S, KJ/(KG)(K)    97.1644  97.3263  97.4893  97.6536  97.8191  97.9858  98.1538  98.3230

 M, (1/n)           1.858    1.855    1.852    1.849    1.846    1.842    1.839    1.836
 (dLV/dLP)t      -1.03893 -1.03966 -1.04039 -1.04113 -1.04188 -1.04264 -1.04340 -1.04417
 (dLV/dLT)p        1.5896   1.5990   1.6085   1.6180   1.6276   1.6373   1.6470   1.6568
 Cp, KJ/(KG)(K)   59.1723  59.7801  60.3921  61.0083  61.6286  62.2530  62.8813  63.5137
 GAMMAs            1.1795   1.1793   1.1792   1.1791   1.1789   1.1788   1.1787   1.1786
 SON VEL,M/SEC     4401.5   4410.8   4420.1   4429.5   4439.0   4448.5   4458.1   4467.8

 TRANSPORT PROPERTIES (GASES ONLY)
   CONDUCTIVITY IN UNITS OF MILLIWATTS/(CM)(K)

 VISC,MILLIPOISE  0.57909  0.58104  0.58300  0.58496  0.58693  0.58890  0.59087  0.59285

  WITH EQUILIBRIUM REACTIONS

 Cp, KJ/(KG)(K)   59.1723  59.7801  60.3921  61.0083  61.6286  62.2530  62.8813  63.5136
 CONDUCTIVITY     72.2131  73.1571  74.1068  75.0620  76.0227  76.9886  77.9597  78.9356
 PRANDTL NUMBER    0.4745   0.4748   0.4751   0.4754   0.4758   0.4762   0.4766   0.4770

  WITH FROZEN REACTIONS

 Cp, KJ/(KG)(K)   19.2131  19.2245  19.2359  19.2473  19.2587  19.2701  19.2815  19.2929
 CONDUCTIVITY     15.9769  16.0394  16.1019  16.1645  16.2271  16.2898  16.3524  16.4150
 PRANDTL NUMBER    0.6964   0.6964   0.6965   0.6965   0.6966   0.6966   0.6967   0.6968

 MOLE FRACTIONS

 *H               0.15685  0.15983  0.16284  0.16589  0.16897  0.17208  0.17523  0.17841
 *H2              0.84315  0.84017  0.83716  0.83411  0.83103  0.82792  0.82477  0.82159

  * THERMODYNAMIC PROPERTIES FITTED TO 20000.K

 NOTE. WEIGHT FRACTION OF FUEL IN TOTAL FUELS AND OF OXIDANT IN TOTAL OXIDANTS









               THERMODYNAMIC EQUILIBRIUM PROPERTIES AT ASSIGNED

                           TEMPERATURE AND PRESSURE

 CASE =                

             REACTANT                    WT FRACTION      ENERGY      TEMP
                                          (SEE NOTE)     KJ/KG-MOL      K  
             H2                           1.0000000         0.000      0.000

 O/F=    0.00000  %FUEL=100.000000  R,EQ.RATIO= 0.000000  PHI,EQ.RATIO= 0.000000

 THERMODYNAMIC PROPERTIES

 P, BAR            28.000   28.000   28.000   28.000   28.000   28.000   28.000   28.000
 T, K             3600.00  3610.00  3620.00  3630.00  3640.00  3650.00  3660.00  3670.00
 RHO, KG/CU M    1.7632-1 1.7559-1 1.7486-1 1.7412-1 1.7339-1 1.7266-1 1.7193-1 1.7121-1
 H, KJ/KG         71164.8  71698.4  72237.5  72782.1  73332.3  73888.1  74449.6  75016.8
 U, KJ/KG         55284.8  55752.0  56224.3  56701.6  57184.0  57671.6  58164.3  58662.2
 G, KJ/KG       -271943.4-272897.2-273852.5-274809.3-275767.6-276727.4-277688.8-278651.7
 S, KJ/(KG)(K)    95.3078  95.4558  95.6050  95.7552  95.9066  96.0591  96.2127  96.3674

 M, (1/n)           1.885    1.882    1.880    1.877    1.874    1.871    1.869    1.866
 (dLV/dLP)t      -1.03233 -1.03297 -1.03362 -1.03428 -1.03494 -1.03562 -1.03630 -1.03699
 (dLV/dLT)p        1.4989   1.5074   1.5160   1.5247   1.5335   1.5423   1.5512   1.5601
 Cp, KJ/(KG)(K)   53.0866  53.6336  54.1851  54.7410  55.3013  55.8659  56.4347  57.0078
 GAMMAs            1.1825   1.1823   1.1820   1.1818   1.1816   1.1814   1.1812   1.1810
 SON VEL,M/SEC     4333.4   4342.0   4350.7   4359.4   4368.2   4377.0   4385.9   4394.9

 TRANSPORT PROPERTIES (GASES ONLY)
   CONDUCTIVITY IN UNITS OF MILLIWATTS/(CM)(K)

 VISC,MILLIPOISE  0.56392  0.56581  0.56772  0.56963  0.57154  0.57346  0.57539  0.57732

  WITH EQUILIBRIUM REACTIONS

 Cp, KJ/(KG)(K)   53.0866  53.6336  54.1851  54.7410  55.3013  55.8658  56.4347  57.0078
 CONDUCTIVITY     63.1785  64.0408  64.9097  65.7853  66.6673  67.5556  68.4501  69.3508
 PRANDTL NUMBER    0.4738   0.4739   0.4739   0.4740   0.4741   0.4742   0.4744   0.4746

  WITH FROZEN REACTIONS

 Cp, KJ/(KG)(K)   19.1264  19.1378  19.1492  19.1606  19.1719  19.1833  19.1946  19.2059
 CONDUCTIVITY     15.4888  15.5502  15.6118  15.6735  15.7353  15.7972  15.8592  15.9213
 PRANDTL NUMBER    0.6964   0.6964   0.6964   0.6964   0.6964   0.6964   0.6964   0.6964

 MOLE FRACTIONS

 *H               0.12995  0.13255  0.13520  0.13787  0.14058  0.14332  0.14610  0.14891
 *H2              0.87005  0.86745  0.86480  0.86213  0.85942  0.85668  0.85390  0.85109

  * THERMODYNAMIC PROPERTIES FITTED TO 20000.K

 NOTE. WEIGHT FRACTION OF FUEL IN TOTAL FUELS AND OF OXIDANT IN TOTAL OXIDANTS









               THERMODYNAMIC EQUILIBRIUM PROPERTIES AT ASSIGNED

                           TEMPERATURE AND PRESSURE

 CASE =                

             REACTANT                    WT FRACTION      ENERGY      TEMP
                                          (SEE NOTE)     KJ/KG-MOL      K  
             H2                           1.0000000         0.000      0.000

 O/F=    0.00000  %FUEL=100.000000  R,EQ.RATIO= 0.000000  PHI,EQ.RATIO= 0.000000

 THERMODYNAMIC PROPERTIES

 P, BAR            28.000   28.000   28.000   28.000   28.000   28.000   28.000   31.000
 T, K             3680.00  3690.00  3700.00  3710.00  3720.00  3730.00  3740.00  3600.00
 RHO, KG/CU M    1.7048-1 1.6975-1 1.6903-1 1.6830-1 1.6758-1 1.6685-1 1.6613-1 1.9584-1
 H, KJ/KG         75589.8  76168.5  76753.1  77343.6  77940.0  78542.3  79150.7  70378.3
 U, KJ/KG         59165.4  59673.9  60187.7  60706.8  61231.3  61761.3  62296.7  54549.3
 G, KJ/KG       -279616.1-280582.1-281549.7-282518.9-283489.7-284462.1-285436.1-270329.7
 S, KJ/(KG)(K)    96.5233  96.6804  96.8386  96.9980  97.1585  97.3202  97.4831  94.6411

 M, (1/n)           1.863    1.860    1.857    1.854    1.851    1.848    1.845    1.891
 (dLV/dLP)t      -1.03768 -1.03838 -1.03909 -1.03981 -1.04054 -1.04127 -1.04201 -1.03085
 (dLV/dLT)p        1.5691   1.5782   1.5874   1.5966   1.6059   1.6152   1.6246   1.4760
 Cp, KJ/(KG)(K)   57.5852  58.1666  58.7522  59.3417  59.9353  60.5328  61.1342  51.4187
 GAMMAs            1.1809   1.1807   1.1805   1.1804   1.1802   1.1801   1.1800   1.1841
 SON VEL,M/SEC     4403.9   4413.1   4422.2   4431.5   4440.8   4450.1   4459.6   4329.3

 TRANSPORT PROPERTIES (GASES ONLY)
   CONDUCTIVITY IN UNITS OF MILLIWATTS/(CM)(K)

 VISC,MILLIPOISE  0.57925  0.58119  0.58314  0.58509  0.58704  0.58900  0.59096  0.56249

  WITH EQUILIBRIUM REACTIONS

 Cp, KJ/(KG)(K)   57.5851  58.1666  58.7522  59.3417  59.9353  60.5328  61.1342  51.4187
 CONDUCTIVITY     70.2574  71.1698  72.0879  73.0116  73.9408  74.8752  75.8147  60.9438
 PRANDTL NUMBER    0.4748   0.4750   0.4753   0.4755   0.4758   0.4762   0.4765   0.4746

  WITH FROZEN REACTIONS

 Cp, KJ/(KG)(K)   19.2172  19.2286  19.2399  19.2512  19.2624  19.2737  19.2850  19.1209
 CONDUCTIVITY     15.9834  16.0457  16.1079  16.1703  16.2327  16.2951  16.3575  15.4425
 PRANDTL NUMBER    0.6964   0.6965   0.6965   0.6966   0.6966   0.6967   0.6967   0.6965

 MOLE FRACTIONS

 *H               0.15175  0.15462  0.15753  0.16047  0.16345  0.16645  0.16950  0.12393
 *H2              0.84825  0.84538  0.84247  0.83953  0.83655  0.83355  0.83050  0.87607

  * THERMODYNAMIC PROPERTIES FITTED TO 20000.K

 NOTE. WEIGHT FRACTION OF FUEL IN TOTAL FUELS AND OF OXIDANT IN TOTAL OXIDANTS









               THERMODYNAMIC EQUILIBRIUM PROPERTIES AT ASSIGNED

                           TEMPERATURE AND PRESSURE

 CASE =                

             REACTANT                    WT FRACTION      ENERGY      TEMP
                                          (SEE NOTE)     KJ/KG-MOL      K  
             H2                           1.0000000         0.000      0.000

 O/F=    0.00000  %FUEL=100.000000  R,EQ.RATIO= 0.000000  PHI,EQ.RATIO= 0.000000

 THERMODYNAMIC PROPERTIES

 P, BAR            31.000   31.000   31.000   31.000   31.000   31.000   31.000   31.000
 T, K             3610.00  3620.00  3630.00  3640.00  3650.00  3660.00  3670.00  3680.00
 RHO, KG/CU M    1.9504-1 1.9424-1 1.9344-1 1.9264-1 1.9184-1 1.9104-1 1.9025-1 1.8945-1
 H, KJ/KG         70895.1  71417.1  71944.4  72477.1  73015.1  73558.5  74107.3  74661.7
 U, KJ/KG         55000.9  55457.4  55918.7  56384.8  56855.9  57331.8  57812.8  58298.8
 G, KJ/KG       -271276.8-272225.4-273175.4-274126.9-275079.8-276034.2-276990.1-277947.6
 S, KJ/(KG)(K)    94.7845  94.9289  95.0743  95.2209  95.3685  95.5171  95.6669  95.8177

 M, (1/n)           1.888    1.886    1.883    1.881    1.878    1.875    1.873    1.870
 (dLV/dLP)t      -1.03146 -1.03208 -1.03272 -1.03335 -1.03400 -1.03465 -1.03531 -1.03598
 (dLV/dLT)p        1.4842   1.4925   1.5008   1.5092   1.5177   1.5262   1.5348   1.5435
 Cp, KJ/(KG)(K)   51.9404  52.4664  52.9967  53.5312  54.0700  54.6128  55.1598  55.7109
 GAMMAs            1.1838   1.1836   1.1833   1.1831   1.1829   1.1826   1.1824   1.1823
 SON VEL,M/SEC     4337.7   4346.2   4354.7   4363.3   4372.0   4380.7   4389.5   4398.3

 TRANSPORT PROPERTIES (GASES ONLY)
   CONDUCTIVITY IN UNITS OF MILLIWATTS/(CM)(K)

 VISC,MILLIPOISE  0.56437  0.56625  0.56814  0.57004  0.57194  0.57385  0.57576  0.57768

  WITH EQUILIBRIUM REACTIONS

 Cp, KJ/(KG)(K)   51.9404  52.4664  52.9967  53.5312  54.0700  54.6128  55.1598  55.7109
 CONDUCTIVITY     61.7732  62.6093  63.4519  64.3009  65.1562  66.0178  66.8855  67.7592
 PRANDTL NUMBER    0.4745   0.4745   0.4745   0.4746   0.4746   0.4747   0.4748   0.4750

  WITH FROZEN REACTIONS

 Cp, KJ/(KG)(K)   19.1322  19.1435  19.1548  19.1661  19.1773  19.1886  19.1998  19.2110
 CONDUCTIVITY     15.5035  15.5646  15.6258  15.6872  15.7487  15.8103  15.8720  15.9338
 PRANDTL NUMBER    0.6965   0.6965   0.6964   0.6964   0.6965   0.6965   0.6965   0.6965

 MOLE FRACTIONS

 *H               0.12642  0.12895  0.13151  0.13411  0.13673  0.13939  0.14208  0.14481
 *H2              0.87358  0.87105  0.86849  0.86589  0.86327  0.86061  0.85792  0.85519

  * THERMODYNAMIC PROPERTIES FITTED TO 20000.K

 NOTE. WEIGHT FRACTION OF FUEL IN TOTAL FUELS AND OF OXIDANT IN TOTAL OXIDANTS









               THERMODYNAMIC EQUILIBRIUM PROPERTIES AT ASSIGNED

                           TEMPERATURE AND PRESSURE

 CASE =                

             REACTANT                    WT FRACTION      ENERGY      TEMP
                                          (SEE NOTE)     KJ/KG-MOL      K  
             H2                           1.0000000         0.000      0.000

 O/F=    0.00000  %FUEL=100.000000  R,EQ.RATIO= 0.000000  PHI,EQ.RATIO= 0.000000

 THERMODYNAMIC PROPERTIES

 P, BAR            31.000   31.000   31.000   31.000   31.000   31.000   35.000   35.000
 T, K             3690.00  3700.00  3710.00  3720.00  3730.00  3740.00  3600.00  3610.00
 RHO, KG/CU M    1.8866-1 1.8787-1 1.8707-1 1.8628-1 1.8549-1 1.8470-1 2.2192-1 2.2103-1
 H, KJ/KG         75221.6  75787.0  76358.1  76934.8  77517.2  78105.3  69490.7  69988.5
 U, KJ/KG         58789.8  59285.9  59787.1  60293.4  60804.9  61321.6  53719.2  54153.3
 G, KJ/KG       -278906.5-279867.0-280829.0-281792.5-282757.6-283724.3-268412.2-269351.5
 S, KJ/(KG)(K)    95.9697  96.1227  96.2768  96.4321  96.5884  96.7459  93.8619  94.0000

 M, (1/n)           1.867    1.864    1.861    1.859    1.856    1.853    1.898    1.895
 (dLV/dLP)t      -1.03666 -1.03734 -1.03803 -1.03873 -1.03943 -1.04014 -1.02916 -1.02974
 (dLV/dLT)p        1.5522   1.5610   1.5699   1.5788   1.5878   1.5968   1.4499   1.4577
 Cp, KJ/(KG)(K)   56.2660  56.8251  57.3882  57.9552  58.5260  59.1006  49.5336  50.0266
 GAMMAs            1.1821   1.1819   1.1817   1.1816   1.1814   1.1813   1.1859   1.1857
 SON VEL,M/SEC     4407.2   4416.2   4425.2   4434.3   4443.5   4452.7   4324.8   4333.0

 TRANSPORT PROPERTIES (GASES ONLY)
   CONDUCTIVITY IN UNITS OF MILLIWATTS/(CM)(K)

 VISC,MILLIPOISE  0.57960  0.58153  0.58346  0.58540  0.58734  0.58929  0.56084  0.56269

  WITH EQUILIBRIUM REACTIONS

 Cp, KJ/(KG)(K)   56.2660  56.8251  57.3882  57.9552  58.5260  59.1006  49.5336  50.0266
 CONDUCTIVITY     68.6387  69.5241  70.4150  71.3115  72.2134  73.1205  58.3993  59.1907
 PRANDTL NUMBER    0.4751   0.4753   0.4755   0.4758   0.4760   0.4763   0.4757   0.4756

  WITH FROZEN REACTIONS

 Cp, KJ/(KG)(K)   19.2223  19.2335  19.2447  19.2559  19.2671  19.2783  19.1147  19.1259
 CONDUCTIVITY     15.9957  16.0576  16.1197  16.1818  16.2439  16.3061  15.3886  15.4490
 PRANDTL NUMBER    0.6965   0.6965   0.6966   0.6966   0.6967   0.6967   0.6966   0.6966

 MOLE FRACTIONS

 *H               0.14756  0.15035  0.15317  0.15602  0.15891  0.16183  0.11708  0.11945
 *H2              0.85244  0.84965  0.84683  0.84398  0.84109  0.83817  0.88292  0.88055

  * THERMODYNAMIC PROPERTIES FITTED TO 20000.K

 NOTE. WEIGHT FRACTION OF FUEL IN TOTAL FUELS AND OF OXIDANT IN TOTAL OXIDANTS









               THERMODYNAMIC EQUILIBRIUM PROPERTIES AT ASSIGNED

                           TEMPERATURE AND PRESSURE

 CASE =                

             REACTANT                    WT FRACTION      ENERGY      TEMP
                                          (SEE NOTE)     KJ/KG-MOL      K  
             H2                           1.0000000         0.000      0.000

 O/F=    0.00000  %FUEL=100.000000  R,EQ.RATIO= 0.000000  PHI,EQ.RATIO= 0.000000

 THERMODYNAMIC PROPERTIES

 P, BAR            35.000   35.000   35.000   35.000   35.000   35.000   35.000   35.000
 T, K             3620.00  3630.00  3640.00  3650.00  3660.00  3670.00  3680.00  3690.00
 RHO, KG/CU M    2.2013-1 2.1924-1 2.1835-1 2.1747-1 2.1658-1 2.1569-1 2.1481-1 2.1393-1
 H, KJ/KG         70491.3  70999.0  71511.8  72029.6  72552.6  73080.7  73614.0  74152.5
 U, KJ/KG         54591.9  55035.0  55482.8  55935.2  56392.2  56854.0  57320.4  57791.7
 G, KJ/KG       -270292.2-271234.3-272177.8-273122.7-274069.0-275016.8-275966.0-276916.7
 S, KJ/(KG)(K)    94.1391  94.2791  94.4202  94.5623  94.7054  94.8494  94.9946  95.1407

 M, (1/n)           1.893    1.891    1.888    1.886    1.883    1.880    1.878    1.875
 (dLV/dLP)t      -1.03033 -1.03093 -1.03154 -1.03216 -1.03278 -1.03341 -1.03404 -1.03469
 (dLV/dLT)p        1.4656   1.4735   1.4815   1.4896   1.4977   1.5059   1.5142   1.5225
 Cp, KJ/(KG)(K)   50.5237  51.0248  51.5300  52.0393  52.5525  53.0697  53.5909  54.1159
 GAMMAs            1.1854   1.1851   1.1849   1.1846   1.1844   1.1842   1.1840   1.1838
 SON VEL,M/SEC     4341.3   4349.6   4358.0   4366.5   4375.0   4383.5   4392.2   4400.8

 TRANSPORT PROPERTIES (GASES ONLY)
   CONDUCTIVITY IN UNITS OF MILLIWATTS/(CM)(K)

 VISC,MILLIPOISE  0.56455  0.56642  0.56829  0.57017  0.57205  0.57395  0.57584  0.57774

  WITH EQUILIBRIUM REACTIONS

 Cp, KJ/(KG)(K)   50.5237  51.0248  51.5300  52.0393  52.5525  53.0697  53.5909  54.1159
 CONDUCTIVITY     59.9886  60.7930  61.6037  62.4207  63.2439  64.0732  64.9085  65.7497
 PRANDTL NUMBER    0.4755   0.4754   0.4754   0.4753   0.4753   0.4754   0.4754   0.4755

  WITH FROZEN REACTIONS

 Cp, KJ/(KG)(K)   19.1371  19.1483  19.1594  19.1706  19.1818  19.1929  19.2040  19.2152
 CONDUCTIVITY     15.5095  15.5702  15.6310  15.6920  15.7530  15.8142  15.8756  15.9370
 PRANDTL NUMBER    0.6966   0.6966   0.6966   0.6966   0.6966   0.6966   0.6966   0.6966

 MOLE FRACTIONS

 *H               0.12185  0.12428  0.12675  0.12924  0.13176  0.13432  0.13691  0.13953
 *H2              0.87815  0.87572  0.87325  0.87076  0.86824  0.86568  0.86309  0.86047

  * THERMODYNAMIC PROPERTIES FITTED TO 20000.K

 NOTE. WEIGHT FRACTION OF FUEL IN TOTAL FUELS AND OF OXIDANT IN TOTAL OXIDANTS









               THERMODYNAMIC EQUILIBRIUM PROPERTIES AT ASSIGNED

                           TEMPERATURE AND PRESSURE

 CASE =                

             REACTANT                    WT FRACTION      ENERGY      TEMP
                                          (SEE NOTE)     KJ/KG-MOL      K  
             H2                           1.0000000         0.000      0.000

 O/F=    0.00000  %FUEL=100.000000  R,EQ.RATIO= 0.000000  PHI,EQ.RATIO= 0.000000

 THERMODYNAMIC PROPERTIES

 P, BAR            35.000   35.000   35.000   35.000   35.000   39.000   39.000   39.000
 T, K             3700.00  3710.00  3720.00  3730.00  3740.00  3600.00  3610.00  3620.00
 RHO, KG/CU M    2.1304-1 2.1216-1 2.1128-1 2.1040-1 2.0953-1 2.4804-1 2.4706-1 2.4608-1
 H, KJ/KG         74696.3  75245.4  75799.9  76359.7  76925.0  68743.0  69224.8  69711.2
 U, KJ/KG         58267.8  58748.7  59234.4  59725.1  60220.7  53019.9  53439.1  53862.7
 G, KJ/KG       -277868.8-278822.4-279777.5-280734.1-281692.3-266708.1-267640.6-268574.4
 S, KJ/(KG)(K)    95.2879  95.4361  95.5853  95.7356  95.8870  93.1809  93.3145  93.4491

 M, (1/n)           1.873    1.870    1.867    1.864    1.862    1.904    1.901    1.899
 (dLV/dLP)t      -1.03534 -1.03599 -1.03666 -1.03733 -1.03801 -1.02772 -1.02828 -1.02885
 (dLV/dLT)p        1.5309   1.5394   1.5479   1.5565   1.5651   1.4278   1.4353   1.4428
 Cp, KJ/(KG)(K)   54.6448  55.1775  55.7141  56.2543  56.7982  47.9434  48.4119  48.8844
 GAMMAs            1.1836   1.1834   1.1832   1.1831   1.1829   1.1876   1.1873   1.1871
 SON VEL,M/SEC     4409.6   4418.4   4427.2   4436.2   4445.2   4321.3   4329.3   4337.4

 TRANSPORT PROPERTIES (GASES ONLY)
   CONDUCTIVITY IN UNITS OF MILLIWATTS/(CM)(K)

 VISC,MILLIPOISE  0.57965  0.58156  0.58348  0.58540  0.58733  0.55941  0.56124  0.56308

  WITH EQUILIBRIUM REACTIONS

 Cp, KJ/(KG)(K)   54.6448  55.1775  55.7140  56.2543  56.7982  47.9434  48.4119  48.8844
 CONDUCTIVITY     66.5967  67.4493  68.3076  69.1713  70.0404  56.2370  56.9955  57.7605
 PRANDTL NUMBER    0.4756   0.4758   0.4759   0.4761   0.4763   0.4769   0.4767   0.4766

  WITH FROZEN REACTIONS

 Cp, KJ/(KG)(K)   19.2263  19.2374  19.2485  19.2596  19.2707  19.1094  19.1206  19.1317
 CONDUCTIVITY     15.9985  16.0601  16.1218  16.1835  16.2454  15.3418  15.4016  15.4616
 PRANDTL NUMBER    0.6966   0.6966   0.6966   0.6967   0.6967   0.6968   0.6968   0.6967

 MOLE FRACTIONS

 *H               0.14218  0.14486  0.14757  0.15032  0.15309  0.11128  0.11354  0.11583
 *H2              0.85782  0.85514  0.85243  0.84968  0.84691  0.88872  0.88646  0.88417

  * THERMODYNAMIC PROPERTIES FITTED TO 20000.K

 NOTE. WEIGHT FRACTION OF FUEL IN TOTAL FUELS AND OF OXIDANT IN TOTAL OXIDANTS









               THERMODYNAMIC EQUILIBRIUM PROPERTIES AT ASSIGNED

                           TEMPERATURE AND PRESSURE

 CASE =                

             REACTANT                    WT FRACTION      ENERGY      TEMP
                                          (SEE NOTE)     KJ/KG-MOL      K  
             H2                           1.0000000         0.000      0.000

 O/F=    0.00000  %FUEL=100.000000  R,EQ.RATIO= 0.000000  PHI,EQ.RATIO= 0.000000

 THERMODYNAMIC PROPERTIES

 P, BAR            39.000   39.000   39.000   39.000   39.000   39.000   39.000   39.000
 T, K             3630.00  3640.00  3650.00  3660.00  3670.00  3680.00  3690.00  3700.00
 RHO, KG/CU M    2.4510-1 2.4412-1 2.4314-1 2.4217-1 2.4119-1 2.4022-1 2.3925-1 2.3828-1
 H, KJ/KG         70202.5  70698.5  71199.3  71705.0  72215.6  72731.1  73251.6  73777.1
 U, KJ/KG         54290.5  54722.7  55159.4  55600.4  56046.0  56496.0  56950.6  57409.7
 G, KJ/KG       -269509.6-270446.1-271384.0-272323.3-273263.9-274206.0-275149.5-276094.4
 S, KJ/(KG)(K)    93.5846  93.7210  93.8584  93.9968  94.1361  94.2764  94.4176  94.5599

 M, (1/n)           1.897    1.894    1.892    1.890    1.887    1.885    1.882    1.880
 (dLV/dLP)t      -1.02942 -1.03000 -1.03059 -1.03118 -1.03178 -1.03239 -1.03301 -1.03363
 (dLV/dLT)p        1.4504   1.4580   1.4657   1.4735   1.4814   1.4893   1.4972   1.5053
 Cp, KJ/(KG)(K)   49.3608  49.8411  50.3253  50.8134  51.3053  51.8009  52.3004  52.8036
 GAMMAs            1.1868   1.1865   1.1863   1.1860   1.1858   1.1855   1.1853   1.1851
 SON VEL,M/SEC     4345.6   4353.8   4362.0   4370.4   4378.7   4387.2   4395.7   4404.2

 TRANSPORT PROPERTIES (GASES ONLY)
   CONDUCTIVITY IN UNITS OF MILLIWATTS/(CM)(K)

 VISC,MILLIPOISE  0.56493  0.56678  0.56864  0.57050  0.57237  0.57425  0.57613  0.57802

  WITH EQUILIBRIUM REACTIONS

 Cp, KJ/(KG)(K)   49.3608  49.8411  50.3253  50.8134  51.3052  51.8009  52.3004  52.8035
 CONDUCTIVITY     58.5318  59.3094  60.0932  60.8831  61.6791  62.4810  63.2888  64.1024
 PRANDTL NUMBER    0.4764   0.4763   0.4762   0.4761   0.4761   0.4761   0.4761   0.4761

  WITH FROZEN REACTIONS

 Cp, KJ/(KG)(K)   19.1428  19.1539  19.1650  19.1760  19.1871  19.1982  19.2092  19.2202
 CONDUCTIVITY     15.5217  15.5820  15.6425  15.7030  15.7637  15.8246  15.8855  15.9466
 PRANDTL NUMBER    0.6967   0.6967   0.6967   0.6967   0.6967   0.6967   0.6967   0.6967

 MOLE FRACTIONS

 *H               0.11815  0.12050  0.12288  0.12529  0.12773  0.13020  0.13270  0.13523
 *H2              0.88185  0.87950  0.87712  0.87471  0.87227  0.86980  0.86730  0.86477

  * THERMODYNAMIC PROPERTIES FITTED TO 20000.K

 NOTE. WEIGHT FRACTION OF FUEL IN TOTAL FUELS AND OF OXIDANT IN TOTAL OXIDANTS









               THERMODYNAMIC EQUILIBRIUM PROPERTIES AT ASSIGNED

                           TEMPERATURE AND PRESSURE

 CASE =                

             REACTANT                    WT FRACTION      ENERGY      TEMP
                                          (SEE NOTE)     KJ/KG-MOL      K  
             H2                           1.0000000         0.000      0.000

 O/F=    0.00000  %FUEL=100.000000  R,EQ.RATIO= 0.000000  PHI,EQ.RATIO= 0.000000

 THERMODYNAMIC PROPERTIES

 P, BAR            39.000   39.000   39.000   39.000   44.000   44.000   44.000   44.000
 T, K             3710.00  3720.00  3730.00  3740.00  3600.00  3610.00  3620.00  3630.00
 RHO, KG/CU M    2.3731-1 2.3634-1 2.3538-1 2.3441-1 2.8076-1 2.7966-1 2.7857-1 2.7748-1
 H, KJ/KG         74307.7  74843.3  75384.1  75930.1  67955.3  68420.2  68889.5  69363.3
 U, KJ/KG         57873.5  58341.9  58814.9  59292.7  52283.3  52686.8  53094.5  53506.2
 G, KJ/KG       -277040.7-277988.4-278937.6-279888.3-264814.6-265739.6-266665.9-267593.5
 S, KJ/(KG)(K)    94.7031  94.8472  94.9924  95.1386  92.4361  92.5650  92.6949  92.8256

 M, (1/n)           1.877    1.874    1.872    1.869    1.910    1.908    1.906    1.903
 (dLV/dLP)t      -1.03426 -1.03490 -1.03554 -1.03619 -1.02620 -1.02673 -1.02727 -1.02781
 (dLV/dLT)p        1.5134   1.5216   1.5298   1.5381   1.4043   1.4114   1.4185   1.4257
 Cp, KJ/(KG)(K)   53.3104  53.8210  54.3352  54.8529  46.2663  46.7089  47.1553  47.6055
 GAMMAs            1.1849   1.1847   1.1845   1.1844   1.1896   1.1893   1.1890   1.1887
 SON VEL,M/SEC     4412.8   4421.5   4430.2   4439.0   4317.8   4325.6   4333.5   4341.5

 TRANSPORT PROPERTIES (GASES ONLY)
   CONDUCTIVITY IN UNITS OF MILLIWATTS/(CM)(K)

 VISC,MILLIPOISE  0.57991  0.58181  0.58372  0.58563  0.55787  0.55968  0.56150  0.56332

  WITH EQUILIBRIUM REACTIONS

 Cp, KJ/(KG)(K)   53.3104  53.8210  54.3351  54.8529  46.2663  46.7089  47.1553  47.6055
 CONDUCTIVITY     64.9217  65.7466  66.5769  67.4127  53.9408  54.6640  55.3934  56.1290
 PRANDTL NUMBER    0.4762   0.4763   0.4764   0.4765   0.4785   0.4782   0.4780   0.4778

  WITH FROZEN REACTIONS

 Cp, KJ/(KG)(K)   19.2313  19.2423  19.2533  19.2643  19.1039  19.1150  19.1260  19.1370
 CONDUCTIVITY     16.0078  16.0691  16.1304  16.1919  15.2910  15.3502  15.4095  15.4690
 PRANDTL NUMBER    0.6967   0.6967   0.6967   0.6967   0.6970   0.6969   0.6969   0.6969

 MOLE FRACTIONS

 *H               0.13780  0.14039  0.14301  0.14566  0.10513  0.10727  0.10944  0.11164
 *H2              0.86220  0.85961  0.85699  0.85434  0.89487  0.89273  0.89056  0.88836

  * THERMODYNAMIC PROPERTIES FITTED TO 20000.K

 NOTE. WEIGHT FRACTION OF FUEL IN TOTAL FUELS AND OF OXIDANT IN TOTAL OXIDANTS









               THERMODYNAMIC EQUILIBRIUM PROPERTIES AT ASSIGNED

                           TEMPERATURE AND PRESSURE

 CASE =                

             REACTANT                    WT FRACTION      ENERGY      TEMP
                                          (SEE NOTE)     KJ/KG-MOL      K  
             H2                           1.0000000         0.000      0.000

 O/F=    0.00000  %FUEL=100.000000  R,EQ.RATIO= 0.000000  PHI,EQ.RATIO= 0.000000

 THERMODYNAMIC PROPERTIES

 P, BAR            44.000   44.000   44.000   44.000   44.000   44.000   44.000   44.000
 T, K             3640.00  3650.00  3660.00  3670.00  3680.00  3690.00  3700.00  3710.00
 RHO, KG/CU M    2.7639-1 2.7530-1 2.7422-1 2.7313-1 2.7205-1 2.7097-1 2.6989-1 2.6881-1
 H, KJ/KG         69841.6  70324.5  70812.0  71304.1  71800.9  72302.3  72808.5  73319.5
 U, KJ/KG         53922.0  54342.0  54766.2  55194.7  55627.3  56064.3  56505.6  56951.3
 G, KJ/KG       -268522.4-269452.6-270384.2-271317.1-272251.4-273187.0-274123.9-275062.3
 S, KJ/(KG)(K)    92.9572  93.0896  93.2230  93.3573  93.4924  93.6285  93.7655  93.9035

 M, (1/n)           1.901    1.899    1.897    1.894    1.892    1.889    1.887    1.885
 (dLV/dLP)t      -1.02836 -1.02892 -1.02949 -1.03006 -1.03064 -1.03122 -1.03182 -1.03242
 (dLV/dLT)p        1.4330   1.4404   1.4478   1.4552   1.4628   1.4704   1.4780   1.4857
 Cp, KJ/(KG)(K)   48.0594  48.5170  48.9783  49.4432  49.9118  50.3840  50.8599  51.3392
 GAMMAs            1.1884   1.1881   1.1878   1.1876   1.1873   1.1871   1.1869   1.1866
 SON VEL,M/SEC     4349.5   4357.6   4365.7   4373.9   4382.1   4390.4   4398.8   4407.2

 TRANSPORT PROPERTIES (GASES ONLY)
   CONDUCTIVITY IN UNITS OF MILLIWATTS/(CM)(K)

 VISC,MILLIPOISE  0.56515  0.56698  0.56882  0.57067  0.57252  0.57438  0.57625  0.57812

  WITH EQUILIBRIUM REACTIONS

 Cp, KJ/(KG)(K)   48.0594  48.5170  48.9783  49.4432  49.9118  50.3840  50.8599  51.3392
 CONDUCTIVITY     56.8708  57.6187  58.3726  59.1325  59.8982  60.6698  61.4472  62.2302
 PRANDTL NUMBER    0.4776   0.4774   0.4773   0.4772   0.4771   0.4770   0.4770   0.4769

  WITH FROZEN REACTIONS

 Cp, KJ/(KG)(K)   19.1480  19.1590  19.1700  19.1810  19.1919  19.2029  19.2138  19.2248
 CONDUCTIVITY     15.5287  15.5886  15.6485  15.7087  15.7690  15.8294  15.8899  15.9506
 PRANDTL NUMBER    0.6969   0.6968   0.6968   0.6968   0.6968   0.6968   0.6968   0.6968

 MOLE FRACTIONS

 *H               0.11387  0.11613  0.11842  0.12074  0.12308  0.12546  0.12786  0.13029
 *H2              0.88613  0.88387  0.88158  0.87926  0.87692  0.87454  0.87214  0.86971

  * THERMODYNAMIC PROPERTIES FITTED TO 20000.K

 NOTE. WEIGHT FRACTION OF FUEL IN TOTAL FUELS AND OF OXIDANT IN TOTAL OXIDANTS









               THERMODYNAMIC EQUILIBRIUM PROPERTIES AT ASSIGNED

                           TEMPERATURE AND PRESSURE

 CASE =                

             REACTANT                    WT FRACTION      ENERGY      TEMP
                                          (SEE NOTE)     KJ/KG-MOL      K  
             H2                           1.0000000         0.000      0.000

 O/F=    0.00000  %FUEL=100.000000  R,EQ.RATIO= 0.000000  PHI,EQ.RATIO= 0.000000

 THERMODYNAMIC PROPERTIES

 P, BAR            44.000   44.000   44.000   49.000   49.000   49.000   49.000   49.000
 T, K             3720.00  3730.00  3740.00  3600.00  3610.00  3620.00  3630.00  3640.00
 RHO, KG/CU M    2.6774-1 2.6666-1 2.6559-1 3.1352-1 3.1232-1 3.1111-1 3.0991-1 3.0871-1
 H, KJ/KG         73835.3  74356.0  74881.5  67291.2  67741.8  68196.6  68655.7  69119.1
 U, KJ/KG         57401.3  57855.8  58314.7  51662.2  52052.5  52446.7  52844.8  53246.8
 G, KJ/KG       -276002.0-276943.1-277885.6-263130.2-264048.6-264968.3-265889.3-266811.5
 S, KJ/(KG)(K)    94.0423  94.1821  94.3228  91.7837  91.9087  92.0345  92.1612  92.2886

 M, (1/n)           1.882    1.880    1.877    1.915    1.913    1.911    1.909    1.907
 (dLV/dLP)t      -1.03302 -1.03363 -1.03425 -1.02491 -1.02541 -1.02593 -1.02645 -1.02697
 (dLV/dLT)p        1.4935   1.5014   1.5093   1.3844   1.3911   1.3980   1.4048   1.4118
 Cp, KJ/(KG)(K)   51.8221  52.3085  52.7984  44.8506  45.2713  45.6956  46.1235  46.5550
 GAMMAs            1.1864   1.1862   1.1860   1.1913   1.1910   1.1907   1.1904   1.1901
 SON VEL,M/SEC     4415.6   4424.1   4432.7   4315.0   4322.7   4330.5   4338.3   4346.2

 TRANSPORT PROPERTIES (GASES ONLY)
   CONDUCTIVITY IN UNITS OF MILLIWATTS/(CM)(K)

 VISC,MILLIPOISE  0.58000  0.58188  0.58377  0.55655  0.55833  0.56013  0.56193  0.56374

  WITH EQUILIBRIUM REACTIONS

 Cp, KJ/(KG)(K)   51.8221  52.3085  52.7984  44.8506  45.2713  45.6956  46.1235  46.5549
 CONDUCTIVITY     63.0188  63.8128  64.6123  51.9900  52.6826  53.3814  54.0863  54.7972
 PRANDTL NUMBER    0.4769   0.4770   0.4770   0.4801   0.4798   0.4795   0.4792   0.4789

  WITH FROZEN REACTIONS

 Cp, KJ/(KG)(K)   19.2357  19.2466  19.2575  19.0993  19.1102  19.1212  19.1321  19.1431
 CONDUCTIVITY     16.0114  16.0722  16.1332  15.2470  15.3056  15.3643  15.4233  15.4824
 PRANDTL NUMBER    0.6968   0.6968   0.6968   0.6972   0.6971   0.6971   0.6971   0.6970

 MOLE FRACTIONS

 *H               0.13276  0.13525  0.13777  0.09991  0.10195  0.10402  0.10612  0.10825
 *H2              0.86724  0.86475  0.86223  0.90009  0.89805  0.89598  0.89388  0.89175

  * THERMODYNAMIC PROPERTIES FITTED TO 20000.K

 NOTE. WEIGHT FRACTION OF FUEL IN TOTAL FUELS AND OF OXIDANT IN TOTAL OXIDANTS









               THERMODYNAMIC EQUILIBRIUM PROPERTIES AT ASSIGNED

                           TEMPERATURE AND PRESSURE

 CASE =                

             REACTANT                    WT FRACTION      ENERGY      TEMP
                                          (SEE NOTE)     KJ/KG-MOL      K  
             H2                           1.0000000         0.000      0.000

 O/F=    0.00000  %FUEL=100.000000  R,EQ.RATIO= 0.000000  PHI,EQ.RATIO= 0.000000

 THERMODYNAMIC PROPERTIES

 P, BAR            49.000   49.000   49.000   49.000   49.000   49.000   49.000   49.000
 T, K             3650.00  3660.00  3670.00  3680.00  3690.00  3700.00  3710.00  3720.00
 RHO, KG/CU M    3.0752-1 3.0632-1 3.0513-1 3.0394-1 3.0275-1 3.0157-1 3.0038-1 2.9920-1
 H, KJ/KG         69586.8  70058.9  70535.4  71016.3  71501.7  71991.6  72486.1  72985.1
 U, KJ/KG         53652.8  54062.7  54476.7  54894.8  55316.9  55743.1  56173.5  56608.0
 G, KJ/KG       -267735.1-268659.9-269586.0-270513.4-271442.1-272372.2-273303.6-274236.3
 S, KJ/(KG)(K)    92.4170  92.5461  92.6761  92.8070  92.9387  93.0713  93.2048  93.3391

 M, (1/n)           1.905    1.902    1.900    1.898    1.896    1.893    1.891    1.889
 (dLV/dLP)t      -1.02751 -1.02805 -1.02859 -1.02915 -1.02971 -1.03027 -1.03084 -1.03142
 (dLV/dLT)p        1.4188   1.4259   1.4330   1.4402   1.4475   1.4548   1.4622   1.4697
 Cp, KJ/(KG)(K)   46.9900  47.4286  47.8707  48.3163  48.7653  49.2179  49.6738  50.1332
 GAMMAs            1.1898   1.1895   1.1892   1.1890   1.1887   1.1885   1.1882   1.1880
 SON VEL,M/SEC     4354.1   4362.0   4370.0   4378.1   4386.2   4394.4   4402.6   4410.9

 TRANSPORT PROPERTIES (GASES ONLY)
   CONDUCTIVITY IN UNITS OF MILLIWATTS/(CM)(K)

 VISC,MILLIPOISE  0.56555  0.56737  0.56920  0.57103  0.57287  0.57471  0.57657  0.57842

  WITH EQUILIBRIUM REACTIONS

 Cp, KJ/(KG)(K)   46.9900  47.4286  47.8707  48.3162  48.7653  49.2179  49.6738  50.1332
 CONDUCTIVITY     55.5141  56.2369  56.9656  57.7001  58.4403  59.1862  59.9377  60.6948
 PRANDTL NUMBER    0.4787   0.4785   0.4783   0.4782   0.4780   0.4779   0.4778   0.4778

  WITH FROZEN REACTIONS

 Cp, KJ/(KG)(K)   19.1540  19.1649  19.1758  19.1867  19.1976  19.2085  19.2193  19.2302
 CONDUCTIVITY     15.5417  15.6011  15.6607  15.7205  15.7804  15.8404  15.9006  15.9609
 PRANDTL NUMBER    0.6970   0.6970   0.6970   0.6969   0.6969   0.6969   0.6969   0.6969

 MOLE FRACTIONS

 *H               0.11040  0.11258  0.11480  0.11703  0.11930  0.12160  0.12392  0.12627
 *H2              0.88960  0.88742  0.88520  0.88297  0.88070  0.87840  0.87608  0.87373

  * THERMODYNAMIC PROPERTIES FITTED TO 20000.K

 NOTE. WEIGHT FRACTION OF FUEL IN TOTAL FUELS AND OF OXIDANT IN TOTAL OXIDANTS









               THERMODYNAMIC EQUILIBRIUM PROPERTIES AT ASSIGNED

                           TEMPERATURE AND PRESSURE

 CASE =                

             REACTANT                    WT FRACTION      ENERGY      TEMP
                                          (SEE NOTE)     KJ/KG-MOL      K  
             H2                           1.0000000         0.000      0.000

 O/F=    0.00000  %FUEL=100.000000  R,EQ.RATIO= 0.000000  PHI,EQ.RATIO= 0.000000

 THERMODYNAMIC PROPERTIES

 P, BAR            49.000   49.000   54.000   54.000   54.000   54.000   54.000   54.000
 T, K             3730.00  3740.00  3600.00  3610.00  3620.00  3630.00  3640.00  3650.00
 RHO, KG/CU M    2.9802-1 2.9684-1 3.4633-1 3.4502-1 3.4370-1 3.4240-1 3.4109-1 3.3978-1
 H, KJ/KG         73488.8  73997.1  66721.3  67159.6  67602.0  68048.5  68499.1  68953.8
 U, KJ/KG         57046.7  57489.7  51129.2  51508.2  51890.9  52277.3  52667.4  53061.3
 G, KJ/KG       -275170.3-276105.8-261613.4-262526.0-263439.9-264355.0-265271.3-266188.9
 S, KJ/(KG)(K)    93.4743  93.6104  91.2041  91.3257  91.4480  91.5712  91.6952  91.8199

 M, (1/n)           1.886    1.884    1.920    1.918    1.916    1.914    1.912    1.910
 (dLV/dLP)t      -1.03201 -1.03260 -1.02379 -1.02428 -1.02477 -1.02527 -1.02577 -1.02628
 (dLV/dLT)p        1.4772   1.4847   1.3672   1.3736   1.3802   1.3868   1.3934   1.4002
 Cp, KJ/(KG)(K)   50.5960  51.0621  43.6349  44.0367  44.4419  44.8506  45.2627  45.6782
 GAMMAs            1.1878   1.1876   1.1929   1.1926   1.1923   1.1919   1.1916   1.1913
 SON VEL,M/SEC     4419.2   4427.6   4312.8   4320.4   4328.0   4335.7   4343.4   4351.2

 TRANSPORT PROPERTIES (GASES ONLY)
   CONDUCTIVITY IN UNITS OF MILLIWATTS/(CM)(K)

 VISC,MILLIPOISE  0.58029  0.58215  0.55539  0.55716  0.55893  0.56071  0.56250  0.56430

  WITH EQUILIBRIUM REACTIONS

 Cp, KJ/(KG)(K)   50.5960  51.0621  43.6349  44.0367  44.4419  44.8506  45.2627  45.6782
 CONDUCTIVITY     61.4573  62.2251  50.3054  50.9714  51.6434  52.3214  53.0053  53.6950
 PRANDTL NUMBER    0.4777   0.4777   0.4817   0.4814   0.4810   0.4807   0.4803   0.4800

  WITH FROZEN REACTIONS

 Cp, KJ/(KG)(K)   19.2410  19.2519  19.0953  19.1062  19.1171  19.1279  19.1388  19.1497
 CONDUCTIVITY     16.0213  16.0818  15.2083  15.2664  15.3246  15.3831  15.4417  15.5004
 PRANDTL NUMBER    0.6969   0.6969   0.6973   0.6973   0.6973   0.6972   0.6972   0.6971

 MOLE FRACTIONS

 *H               0.12865  0.13106  0.09541  0.09737  0.09935  0.10136  0.10340  0.10546
 *H2              0.87135  0.86894  0.90459  0.90263  0.90065  0.89864  0.89660  0.89454

  * THERMODYNAMIC PROPERTIES FITTED TO 20000.K

 NOTE. WEIGHT FRACTION OF FUEL IN TOTAL FUELS AND OF OXIDANT IN TOTAL OXIDANTS









               THERMODYNAMIC EQUILIBRIUM PROPERTIES AT ASSIGNED

                           TEMPERATURE AND PRESSURE

 CASE =                

             REACTANT                    WT FRACTION      ENERGY      TEMP
                                          (SEE NOTE)     KJ/KG-MOL      K  
             H2                           1.0000000         0.000      0.000

 O/F=    0.00000  %FUEL=100.000000  R,EQ.RATIO= 0.000000  PHI,EQ.RATIO= 0.000000

 THERMODYNAMIC PROPERTIES

 P, BAR            54.000   54.000   54.000   54.000   54.000   54.000   54.000   54.000
 T, K             3660.00  3670.00  3680.00  3690.00  3700.00  3710.00  3720.00  3730.00
 RHO, KG/CU M    3.3848-1 3.3718-1 3.3588-1 3.3459-1 3.3329-1 3.3200-1 3.3071-1 3.2943-1
 H, KJ/KG         69412.6  69875.7  70343.0  70814.6  71290.5  71770.8  72255.4  72744.4
 U, KJ/KG         53459.0  53860.6  54266.0  54675.4  55088.7  55505.9  55927.1  56352.3
 G, KJ/KG       -267107.7-268027.8-268949.2-269871.8-270795.7-271720.9-272647.4-273575.2
 S, KJ/(KG)(K)    91.9455  92.0718  92.1990  92.3269  92.4557  92.5854  92.7158  92.8471

 M, (1/n)           1.907    1.905    1.903    1.901    1.899    1.897    1.894    1.892
 (dLV/dLP)t      -1.02680 -1.02732 -1.02786 -1.02839 -1.02894 -1.02949 -1.03004 -1.03061
 (dLV/dLT)p        1.4070   1.4138   1.4207   1.4277   1.4348   1.4419   1.4490   1.4562
 Cp, KJ/(KG)(K)   46.0972  46.5196  46.9453  47.3744  47.8068  48.2426  48.6816  49.1239
 GAMMAs            1.1910   1.1907   1.1905   1.1902   1.1899   1.1897   1.1894   1.1892
 SON VEL,M/SEC     4359.0   4366.9   4374.8   4382.8   4390.8   4398.9   4407.0   4415.2

 TRANSPORT PROPERTIES (GASES ONLY)
   CONDUCTIVITY IN UNITS OF MILLIWATTS/(CM)(K)

 VISC,MILLIPOISE  0.56610  0.56791  0.56972  0.57154  0.57337  0.57520  0.57704  0.57888

  WITH EQUILIBRIUM REACTIONS

 Cp, KJ/(KG)(K)   46.0972  46.5196  46.9453  47.3744  47.8068  48.2426  48.6816  49.1239
 CONDUCTIVITY     54.3906  55.0919  55.7990  56.5117  57.2300  57.9539  58.6832  59.4179
 PRANDTL NUMBER    0.4798   0.4795   0.4793   0.4791   0.4790   0.4788   0.4787   0.4786

  WITH FROZEN REACTIONS

 Cp, KJ/(KG)(K)   19.1605  19.1714  19.1822  19.1930  19.2038  19.2146  19.2254  19.2362
 CONDUCTIVITY     15.5594  15.6185  15.6777  15.7371  15.7967  15.8564  15.9162  15.9762
 PRANDTL NUMBER    0.6971   0.6971   0.6971   0.6971   0.6970   0.6970   0.6970   0.6970

 MOLE FRACTIONS

 *H               0.10755  0.10967  0.11181  0.11399  0.11619  0.11841  0.12067  0.12295
 *H2              0.89245  0.89033  0.88819  0.88601  0.88381  0.88159  0.87933  0.87705

  * THERMODYNAMIC PROPERTIES FITTED TO 20000.K

 NOTE. WEIGHT FRACTION OF FUEL IN TOTAL FUELS AND OF OXIDANT IN TOTAL OXIDANTS









               THERMODYNAMIC EQUILIBRIUM PROPERTIES AT ASSIGNED

                           TEMPERATURE AND PRESSURE

 CASE =                

             REACTANT                    WT FRACTION      ENERGY      TEMP
                                          (SEE NOTE)     KJ/KG-MOL      K  
             H2                           1.0000000         0.000      0.000

 O/F=    0.00000  %FUEL=100.000000  R,EQ.RATIO= 0.000000  PHI,EQ.RATIO= 0.000000

 THERMODYNAMIC PROPERTIES

 P, BAR            54.000
 T, K             3740.00
 RHO, KG/CU M    3.2814-1
 H, KJ/KG         73237.9
 U, KJ/KG         56781.6
 G, KJ/KG       -274504.4
 S, KJ/(KG)(K)    92.9792

 M, (1/n)           1.890
 (dLV/dLP)t      -1.03117
 (dLV/dLT)p        1.4635
 Cp, KJ/(KG)(K)   49.5694
 GAMMAs            1.1890
 SON VEL,M/SEC     4423.4

 TRANSPORT PROPERTIES (GASES ONLY)
   CONDUCTIVITY IN UNITS OF MILLIWATTS/(CM)(K)

 VISC,MILLIPOISE  0.58073

  WITH EQUILIBRIUM REACTIONS

 Cp, KJ/(KG)(K)   49.5694
 CONDUCTIVITY     60.1579
 PRANDTL NUMBER    0.4785

  WITH FROZEN REACTIONS

 Cp, KJ/(KG)(K)   19.2470
 CONDUCTIVITY     16.0363
 PRANDTL NUMBER    0.6970

 MOLE FRACTIONS

 *H               0.12526
 *H2              0.87474

  * THERMODYNAMIC PROPERTIES FITTED TO 20000.K

 NOTE. WEIGHT FRACTION OF FUEL IN TOTAL FUELS AND OF OXIDANT IN TOTAL OXIDANTS



  
