
 *******************************************************************************

         NASA-GLENN CHEMICAL EQUILIBRIUM PROGRAM CEA2, MAY 21, 2004
                   BY  BONNIE MCBRIDE AND SANFORD GORDON
      REFS: NASA RP-1311, PART I, 1994 AND NASA RP-1311, PART II, 1996

 *******************************************************************************



  prob tp ions
  p,bar= 2.5,2.8,3.1,3.5,3.9,4.4,4.9,5.4,6.0,6.7,7.4,8.25,9.1,10.0,11.0
  t,k= 6000,6010,6020,6030,6040,6050,6060,6070,6080,6090,6100,6110,6120,6130,6140
  
  reac
  na H2                wt%=100.0000
  
  output short
  output siunits
  output transport
  
 end





               THERMODYNAMIC EQUILIBRIUM PROPERTIES AT ASSIGNED

                           TEMPERATURE AND PRESSURE

 CASE =                

             REACTANT                    WT FRACTION      ENERGY      TEMP
                                          (SEE NOTE)     KJ/KG-MOL      K  
             H2                           1.0000000         0.000      0.000

 O/F=    0.00000  %FUEL=100.000000  R,EQ.RATIO= 0.000000  PHI,EQ.RATIO= 0.000000

 THERMODYNAMIC PROPERTIES

 P, BAR            2.5000   2.5000   2.5000   2.5000   2.5000   2.5000   2.5000   2.5000
 T, K             6000.00  6010.00  6020.00  6030.00  6040.00  6050.00  6060.00  6070.00
 RHO, KG/CU M    5.0973-3 5.0881-3 5.0790-3 5.0699-3 5.0608-3 5.0518-3 5.0428-3 5.0339-3
 H, KJ/KG        329726.9 329997.2 330266.5 330534.7 330801.8 331067.9 331333.0 331597.1
 U, KJ/KG        280681.2 280863.0 281043.8 281223.6 281402.5 281580.4 281757.4 281933.6
 G, KJ/KG       -675569.0-677244.7-678920.9-680597.5-682274.6-683952.1-685630.0-687308.4
 S, KJ/(KG)(K)   167.5493 167.5943 167.6391 167.6836 167.7279 167.7719 167.8157 167.8592

 M, (1/n)           1.017    1.017    1.017    1.017    1.017    1.016    1.016    1.016
 (dLV/dLP)t      -1.00895 -1.00882 -1.00869 -1.00856 -1.00844 -1.00832 -1.00820 -1.00808
 (dLV/dLT)p        1.0838   1.0824   1.0811   1.0798   1.0785   1.0773   1.0760   1.0748
 Cp, KJ/(KG)(K)   27.0916  26.9804  26.8715  26.7649  26.6606  26.5585  26.4586  26.3608
 GAMMAs            1.5277   1.5295   1.5312   1.5330   1.5347   1.5363   1.5380   1.5396
 SON VEL,M/SEC     8656.1   8669.0   8681.7   8694.4   8707.0   8719.5   8732.0   8744.3

 TRANSPORT PROPERTIES (GASES ONLY)
   CONDUCTIVITY IN UNITS OF MILLIWATTS/(CM)(K)

 VISC,MILLIPOISE  0.64580  0.64658  0.64737  0.64816  0.64895  0.64974  0.65054  0.65134

  WITH EQUILIBRIUM REACTIONS

 Cp, KJ/(KG)(K)   27.0916  26.9804  26.8715  26.7649  26.6606  26.5585  26.4586  26.3608
 CONDUCTIVITY     27.3706  27.2733  27.1785  27.0860  26.9959  26.9080  26.8224  26.7389
 PRANDTL NUMBER    0.6392   0.6396   0.6401   0.6405   0.6409   0.6413   0.6417   0.6421

  WITH FROZEN REACTIONS

 Cp, KJ/(KG)(K)   20.6268  20.6260  20.6253  20.6246  20.6239  20.6232  20.6225  20.6219
 CONDUCTIVITY     19.8292  19.8557  19.8822  19.9087  19.9353  19.9620  19.9887  20.0155
 PRANDTL NUMBER    0.6718   0.6717   0.6716   0.6715   0.6714   0.6713   0.6712   0.6711

 MOLE FRACTIONS

 *e-              0.00004  0.00004  0.00004  0.00004  0.00004  0.00004  0.00004  0.00004
 *H               0.99075  0.99088  0.99102  0.99115  0.99128  0.99141  0.99153  0.99165
 *H+              0.00004  0.00004  0.00004  0.00004  0.00004  0.00004  0.00004  0.00004
 *H2              0.00918  0.00904  0.00890  0.00877  0.00864  0.00851  0.00838  0.00826

  * THERMODYNAMIC PROPERTIES FITTED TO 20000.K

 NOTE. WEIGHT FRACTION OF FUEL IN TOTAL FUELS AND OF OXIDANT IN TOTAL OXIDANTS









               THERMODYNAMIC EQUILIBRIUM PROPERTIES AT ASSIGNED

                           TEMPERATURE AND PRESSURE

 CASE =                

             REACTANT                    WT FRACTION      ENERGY      TEMP
                                          (SEE NOTE)     KJ/KG-MOL      K  
             H2                           1.0000000         0.000      0.000

 O/F=    0.00000  %FUEL=100.000000  R,EQ.RATIO= 0.000000  PHI,EQ.RATIO= 0.000000

 THERMODYNAMIC PROPERTIES

 P, BAR            2.5000   2.5000   2.5000   2.5000   2.5000   2.5000   2.5000   2.8000
 T, K             6080.00  6090.00  6100.00  6110.00  6120.00  6130.00  6140.00  6000.00
 RHO, KG/CU M    5.0250-3 5.0161-3 5.0073-3 4.9985-3 4.9898-3 4.9811-3 4.9724-3 5.7151-3
 H, KJ/KG        331860.2 332122.4 332383.6 332644.0 332903.4 333162.0 333419.8 329235.8
 U, KJ/KG        282108.8 282283.2 282456.7 282629.4 282801.3 282972.4 283142.7 280242.6
 G, KJ/KG       -688987.2-690666.4-692346.1-694026.2-695706.7-697387.7-699069.0-670013.6
 S, KJ/(KG)(K)   167.9025 167.9456 167.9885 168.0311 168.0736 168.1158 168.1578 166.5416

 M, (1/n)           1.016    1.016    1.016    1.016    1.016    1.016    1.015    1.018
 (dLV/dLP)t      -1.00796 -1.00785 -1.00774 -1.00763 -1.00752 -1.00741 -1.00731 -1.00997
 (dLV/dLT)p        1.0737   1.0725   1.0714   1.0703   1.0692   1.0681   1.0671   1.0932
 Cp, KJ/(KG)(K)   26.2650  26.1713  26.0796  25.9899  25.9020  25.8160  25.7319  27.7994
 GAMMAs            1.5412   1.5428   1.5444   1.5459   1.5475   1.5490   1.5504   1.5176
 SON VEL,M/SEC     8756.6   8768.9   8781.0   8793.1   8805.2   8817.1   8829.0   8622.8

 TRANSPORT PROPERTIES (GASES ONLY)
   CONDUCTIVITY IN UNITS OF MILLIWATTS/(CM)(K)

 VISC,MILLIPOISE  0.65214  0.65294  0.65375  0.65456  0.65537  0.65618  0.65700  0.64720

  WITH EQUILIBRIUM REACTIONS

 Cp, KJ/(KG)(K)   26.2650  26.1713  26.0796  25.9899  25.9020  25.8160  25.7319  27.7994
 CONDUCTIVITY     26.6576  26.5784  26.5013  26.4261  26.3530  26.2817  26.2124  28.2517
 PRANDTL NUMBER    0.6425   0.6429   0.6433   0.6437   0.6442   0.6446   0.6450   0.6368

  WITH FROZEN REACTIONS

 Cp, KJ/(KG)(K)   20.6213  20.6208  20.6203  20.6198  20.6193  20.6188  20.6184  20.6272
 CONDUCTIVITY     20.0423  20.0692  20.0962  20.1232  20.1502  20.1773  20.2045  19.8546
 PRANDTL NUMBER    0.6710   0.6709   0.6708   0.6707   0.6706   0.6705   0.6705   0.6724

 MOLE FRACTIONS

 *e-              0.00005  0.00005  0.00005  0.00005  0.00005  0.00005  0.00005  0.00004
 *H               0.99177  0.99189  0.99201  0.99212  0.99223  0.99234  0.99245  0.98967
 *H+              0.00005  0.00005  0.00005  0.00005  0.00005  0.00005  0.00005  0.00004
 *H2              0.00814  0.00802  0.00790  0.00778  0.00767  0.00756  0.00745  0.01026

  * THERMODYNAMIC PROPERTIES FITTED TO 20000.K

 NOTE. WEIGHT FRACTION OF FUEL IN TOTAL FUELS AND OF OXIDANT IN TOTAL OXIDANTS









               THERMODYNAMIC EQUILIBRIUM PROPERTIES AT ASSIGNED

                           TEMPERATURE AND PRESSURE

 CASE =                

             REACTANT                    WT FRACTION      ENERGY      TEMP
                                          (SEE NOTE)     KJ/KG-MOL      K  
             H2                           1.0000000         0.000      0.000

 O/F=    0.00000  %FUEL=100.000000  R,EQ.RATIO= 0.000000  PHI,EQ.RATIO= 0.000000

 THERMODYNAMIC PROPERTIES

 P, BAR            2.8000   2.8000   2.8000   2.8000   2.8000   2.8000   2.8000   2.8000
 T, K             6010.00  6020.00  6030.00  6040.00  6050.00  6060.00  6070.00  6080.00
 RHO, KG/CU M    5.7047-3 5.6943-3 5.6841-3 5.6738-3 5.6636-3 5.6535-3 5.6434-3 5.6333-3
 H, KJ/KG        329513.2 329789.4 330064.3 330338.1 330610.7 330882.2 331152.7 331422.0
 U, KJ/KG        280430.8 280617.8 280803.8 280988.7 281172.5 281355.3 281537.1 281718.0
 G, KJ/KG       -671679.3-673345.4-675012.0-676679.0-678346.5-680014.4-681682.7-683351.6
 S, KJ/(KG)(K)   166.5878 166.6337 166.6793 166.7247 166.7698 166.8146 166.8592 166.9035

 M, (1/n)           1.018    1.018    1.018    1.018    1.017    1.017    1.017    1.017
 (dLV/dLP)t      -1.00982 -1.00968 -1.00954 -1.00940 -1.00927 -1.00913 -1.00900 -1.00887
 (dLV/dLT)p        1.0917   1.0902   1.0888   1.0874   1.0860   1.0846   1.0833   1.0820
 Cp, KJ/(KG)(K)   27.6760  27.5551  27.4367  27.3208  27.2073  27.0962  26.9874  26.8809
 GAMMAs            1.5195   1.5213   1.5231   1.5249   1.5266   1.5284   1.5301   1.5318
 SON VEL,M/SEC     8635.9   8648.9   8661.9   8674.8   8687.6   8700.3   8713.0   8725.6

 TRANSPORT PROPERTIES (GASES ONLY)
   CONDUCTIVITY IN UNITS OF MILLIWATTS/(CM)(K)

 VISC,MILLIPOISE  0.64797  0.64874  0.64951  0.65028  0.65106  0.65184  0.65262  0.65341

  WITH EQUILIBRIUM REACTIONS

 Cp, KJ/(KG)(K)   27.6760  27.5551  27.4367  27.3208  27.2073  27.0962  26.9874  26.8809
 CONDUCTIVITY     28.1406  28.0321  27.9263  27.8230  27.7222  27.6239  27.5279  27.4344
 PRANDTL NUMBER    0.6373   0.6377   0.6381   0.6385   0.6390   0.6394   0.6398   0.6402

  WITH FROZEN REACTIONS

 Cp, KJ/(KG)(K)   20.6264  20.6257  20.6249  20.6242  20.6236  20.6229  20.6223  20.6217
 CONDUCTIVITY     19.8807  19.9069  19.9332  19.9595  19.9858  20.0123  20.0387  20.0653
 PRANDTL NUMBER    0.6723   0.6722   0.6720   0.6719   0.6718   0.6717   0.6716   0.6715

 MOLE FRACTIONS

 *e-              0.00004  0.00004  0.00004  0.00004  0.00004  0.00004  0.00004  0.00004
 *H               0.98982  0.98997  0.99012  0.99027  0.99041  0.99055  0.99068  0.99082
 *H+              0.00004  0.00004  0.00004  0.00004  0.00004  0.00004  0.00004  0.00004
 *H2              0.01010  0.00995  0.00980  0.00966  0.00951  0.00937  0.00923  0.00910

  * THERMODYNAMIC PROPERTIES FITTED TO 20000.K

 NOTE. WEIGHT FRACTION OF FUEL IN TOTAL FUELS AND OF OXIDANT IN TOTAL OXIDANTS









               THERMODYNAMIC EQUILIBRIUM PROPERTIES AT ASSIGNED

                           TEMPERATURE AND PRESSURE

 CASE =                

             REACTANT                    WT FRACTION      ENERGY      TEMP
                                          (SEE NOTE)     KJ/KG-MOL      K  
             H2                           1.0000000         0.000      0.000

 O/F=    0.00000  %FUEL=100.000000  R,EQ.RATIO= 0.000000  PHI,EQ.RATIO= 0.000000

 THERMODYNAMIC PROPERTIES

 P, BAR            2.8000   2.8000   2.8000   2.8000   2.8000   2.8000   3.1000   3.1000
 T, K             6090.00  6100.00  6110.00  6120.00  6130.00  6140.00  6000.00  6010.00
 RHO, KG/CU M    5.6233-3 5.6134-3 5.6035-3 5.5936-3 5.5838-3 5.5740-3 6.3341-3 6.3225-3
 H, KJ/KG        331690.3 331957.5 332223.8 332489.0 332753.3 333016.7 328748.3 329032.7
 U, KJ/KG        281897.9 282076.8 282254.8 282431.9 282608.2 282783.5 279807.3 280001.7
 G, KJ/KG       -685020.8-686690.5-688360.6-690031.2-691702.2-693373.6-665029.6-666686.1
 S, KJ/(KG)(K)   166.9476 166.9915 167.0351 167.0785 167.1216 167.1645 165.6297 165.6770

 M, (1/n)           1.017    1.017    1.017    1.017    1.016    1.016    1.019    1.019
 (dLV/dLP)t      -1.00875 -1.00862 -1.00850 -1.00838 -1.00826 -1.00815 -1.01097 -1.01081
 (dLV/dLT)p        1.0807   1.0795   1.0782   1.0770   1.0758   1.0746   1.1026   1.1009
 Cp, KJ/(KG)(K)   26.7766  26.6744  26.5744  26.4765  26.3807  26.2868  28.4991  28.3637
 GAMMAs            1.5335   1.5351   1.5367   1.5383   1.5399   1.5415   1.5082   1.5101
 SON VEL,M/SEC     8738.1   8750.6   8762.9   8775.3   8787.5   8799.7   8591.5   8604.8

 TRANSPORT PROPERTIES (GASES ONLY)
   CONDUCTIVITY IN UNITS OF MILLIWATTS/(CM)(K)

 VISC,MILLIPOISE  0.65419  0.65499  0.65578  0.65658  0.65738  0.65818  0.64859  0.64934

  WITH EQUILIBRIUM REACTIONS

 Cp, KJ/(KG)(K)   26.7766  26.6744  26.5744  26.4765  26.3807  26.2868  28.4991  28.3637
 CONDUCTIVITY     27.3431  27.2542  27.1674  27.0828  27.0004  26.9200  29.1235  28.9988
 PRANDTL NUMBER    0.6406   0.6411   0.6415   0.6419   0.6423   0.6427   0.6347   0.6351

  WITH FROZEN REACTIONS

 Cp, KJ/(KG)(K)   20.6212  20.6206  20.6201  20.6197  20.6192  20.6188  20.6276  20.6268
 CONDUCTIVITY     20.0919  20.1186  20.1453  20.1721  20.1989  20.2258  19.8799  19.9057
 PRANDTL NUMBER    0.6714   0.6713   0.6712   0.6711   0.6711   0.6710   0.6730   0.6729

 MOLE FRACTIONS

 *e-              0.00004  0.00004  0.00005  0.00005  0.00005  0.00005  0.00003  0.00003
 *H               0.99095  0.99108  0.99121  0.99133  0.99145  0.99157  0.98860  0.98877
 *H+              0.00004  0.00004  0.00005  0.00005  0.00005  0.00005  0.00003  0.00003
 *H2              0.00896  0.00883  0.00870  0.00857  0.00845  0.00833  0.01133  0.01116

  * THERMODYNAMIC PROPERTIES FITTED TO 20000.K

 NOTE. WEIGHT FRACTION OF FUEL IN TOTAL FUELS AND OF OXIDANT IN TOTAL OXIDANTS









               THERMODYNAMIC EQUILIBRIUM PROPERTIES AT ASSIGNED

                           TEMPERATURE AND PRESSURE

 CASE =                

             REACTANT                    WT FRACTION      ENERGY      TEMP
                                          (SEE NOTE)     KJ/KG-MOL      K  
             H2                           1.0000000         0.000      0.000

 O/F=    0.00000  %FUEL=100.000000  R,EQ.RATIO= 0.000000  PHI,EQ.RATIO= 0.000000

 THERMODYNAMIC PROPERTIES

 P, BAR            3.1000   3.1000   3.1000   3.1000   3.1000   3.1000   3.1000   3.1000
 T, K             6020.00  6030.00  6040.00  6050.00  6060.00  6070.00  6080.00  6090.00
 RHO, KG/CU M    6.3110-3 6.2995-3 6.2880-3 6.2767-3 6.2653-3 6.2541-3 6.2428-3 6.2317-3
 H, KJ/KG        329315.6 329597.3 329877.7 330156.8 330434.7 330711.3 330986.8 331261.2
 U, KJ/KG        280194.9 280386.9 280577.8 280767.5 280956.0 281143.5 281329.9 281515.2
 G, KJ/KG       -668343.1-670000.6-671658.5-673316.9-674975.8-676635.1-678294.9-679955.1
 S, KJ/(KG)(K)   165.7240 165.7708 165.8173 165.8634 165.9093 165.9549 166.0003 166.0454

 M, (1/n)           1.019    1.019    1.019    1.018    1.018    1.018    1.018    1.018
 (dLV/dLP)t      -1.01066 -1.01050 -1.01035 -1.01020 -1.01006 -1.00992 -1.00977 -1.00964
 (dLV/dLT)p        1.0993   1.0977   1.0962   1.0947   1.0932   1.0917   1.0903   1.0888
 Cp, KJ/(KG)(K)   28.2311  28.1012  27.9740  27.8494  27.7274  27.6078  27.4908  27.3761
 GAMMAs            1.5120   1.5139   1.5157   1.5176   1.5194   1.5211   1.5229   1.5247
 SON VEL,M/SEC     8618.0   8631.2   8644.4   8657.4   8670.4   8683.3   8696.2   8708.9

 TRANSPORT PROPERTIES (GASES ONLY)
   CONDUCTIVITY IN UNITS OF MILLIWATTS/(CM)(K)

 VISC,MILLIPOISE  0.65009  0.65084  0.65160  0.65236  0.65313  0.65389  0.65466  0.65544

  WITH EQUILIBRIUM REACTIONS

 Cp, KJ/(KG)(K)   28.2311  28.1012  27.9740  27.8494  27.7274  27.6078  27.4908  27.3761
 CONDUCTIVITY     28.8770  28.7581  28.6419  28.5285  28.4177  28.3096  28.2040  28.1009
 PRANDTL NUMBER    0.6355   0.6360   0.6364   0.6368   0.6373   0.6377   0.6381   0.6385

  WITH FROZEN REACTIONS

 Cp, KJ/(KG)(K)   20.6260  20.6253  20.6246  20.6239  20.6233  20.6227  20.6221  20.6215
 CONDUCTIVITY     19.9315  19.9575  19.9835  20.0095  20.0357  20.0618  20.0881  20.1144
 PRANDTL NUMBER    0.6727   0.6726   0.6725   0.6724   0.6723   0.6722   0.6721   0.6720

 MOLE FRACTIONS

 *e-              0.00004  0.00004  0.00004  0.00004  0.00004  0.00004  0.00004  0.00004
 *H               0.98894  0.98910  0.98926  0.98941  0.98957  0.98972  0.98987  0.99001
 *H+              0.00004  0.00004  0.00004  0.00004  0.00004  0.00004  0.00004  0.00004
 *H2              0.01099  0.01083  0.01067  0.01051  0.01035  0.01020  0.01005  0.00990

  * THERMODYNAMIC PROPERTIES FITTED TO 20000.K

 NOTE. WEIGHT FRACTION OF FUEL IN TOTAL FUELS AND OF OXIDANT IN TOTAL OXIDANTS









               THERMODYNAMIC EQUILIBRIUM PROPERTIES AT ASSIGNED

                           TEMPERATURE AND PRESSURE

 CASE =                

             REACTANT                    WT FRACTION      ENERGY      TEMP
                                          (SEE NOTE)     KJ/KG-MOL      K  
             H2                           1.0000000         0.000      0.000

 O/F=    0.00000  %FUEL=100.000000  R,EQ.RATIO= 0.000000  PHI,EQ.RATIO= 0.000000

 THERMODYNAMIC PROPERTIES

 P, BAR            3.1000   3.1000   3.1000   3.1000   3.1000   3.5000   3.5000   3.5000
 T, K             6100.00  6110.00  6120.00  6130.00  6140.00  6000.00  6010.00  6020.00
 RHO, KG/CU M    6.2206-3 6.2095-3 6.1985-3 6.1875-3 6.1766-3 7.1615-3 7.1483-3 7.1351-3
 H, KJ/KG        331534.3 331806.4 332077.4 332347.4 332616.3 328103.7 328397.1 328689.1
 U, KJ/KG        281699.6 281882.8 282065.1 282246.5 282426.9 279231.6 279434.3 279635.6
 G, KJ/KG       -681615.8-683276.9-684938.5-686600.5-688263.0-659094.2-660739.7-662385.8
 S, KJ/(KG)(K)   166.0902 166.1348 166.1791 166.2231 166.2670 164.5330 164.5818 164.6304

 M, (1/n)           1.018    1.018    1.017    1.017    1.017    1.021    1.021    1.020
 (dLV/dLP)t      -1.00950 -1.00937 -1.00923 -1.00910 -1.00898 -1.01230 -1.01212 -1.01195
 (dLV/dLT)p        1.0875   1.0861   1.0848   1.0835   1.0822   1.1149   1.1130   1.1113
 Cp, KJ/(KG)(K)   27.2638  27.1538  27.0461  26.9405  26.8372  29.4190  29.2682  29.1204
 GAMMAs            1.5264   1.5281   1.5298   1.5314   1.5331   1.4967   1.4986   1.5006
 SON VEL,M/SEC     8721.7   8734.3   8746.9   8759.4   8771.8   8552.5   8566.1   8579.6

 TRANSPORT PROPERTIES (GASES ONLY)
   CONDUCTIVITY IN UNITS OF MILLIWATTS/(CM)(K)

 VISC,MILLIPOISE  0.65621  0.65699  0.65777  0.65856  0.65935  0.65042  0.65115  0.65188

  WITH EQUILIBRIUM REACTIONS

 Cp, KJ/(KG)(K)   27.2638  27.1538  27.0461  26.9405  26.8372  29.4190  29.2682  29.1204
 CONDUCTIVITY     28.0003  27.9022  27.8064  27.7129  27.6216  30.2717  30.1294  29.9902
 PRANDTL NUMBER    0.6390   0.6394   0.6398   0.6402   0.6406   0.6321   0.6325   0.6330

  WITH FROZEN REACTIONS

 Cp, KJ/(KG)(K)   20.6210  20.6205  20.6200  20.6196  20.6192  20.6281  20.6273  20.6265
 CONDUCTIVITY     20.1408  20.1673  20.1938  20.2203  20.2469  19.9133  19.9386  19.9641
 PRANDTL NUMBER    0.6719   0.6718   0.6717   0.6716   0.6715   0.6738   0.6736   0.6735

 MOLE FRACTIONS

 *e-              0.00004  0.00004  0.00004  0.00005  0.00005  0.00003  0.00003  0.00003
 *H               0.99016  0.99030  0.99044  0.99057  0.99070  0.98718  0.98737  0.98756
 *H+              0.00004  0.00004  0.00004  0.00005  0.00005  0.00003  0.00003  0.00003
 *H2              0.00976  0.00962  0.00948  0.00934  0.00920  0.01276  0.01257  0.01238

  * THERMODYNAMIC PROPERTIES FITTED TO 20000.K

 NOTE. WEIGHT FRACTION OF FUEL IN TOTAL FUELS AND OF OXIDANT IN TOTAL OXIDANTS









               THERMODYNAMIC EQUILIBRIUM PROPERTIES AT ASSIGNED

                           TEMPERATURE AND PRESSURE

 CASE =                

             REACTANT                    WT FRACTION      ENERGY      TEMP
                                          (SEE NOTE)     KJ/KG-MOL      K  
             H2                           1.0000000         0.000      0.000

 O/F=    0.00000  %FUEL=100.000000  R,EQ.RATIO= 0.000000  PHI,EQ.RATIO= 0.000000

 THERMODYNAMIC PROPERTIES

 P, BAR            3.5000   3.5000   3.5000   3.5000   3.5000   3.5000   3.5000   3.5000
 T, K             6030.00  6040.00  6050.00  6060.00  6070.00  6080.00  6090.00  6100.00
 RHO, KG/CU M    7.1219-3 7.1089-3 7.0959-3 7.0829-3 7.0700-3 7.0572-3 7.0445-3 7.0318-3
 H, KJ/KG        328979.6 329268.6 329556.3 329842.5 330127.4 330411.0 330693.3 330974.4
 U, KJ/KG        279835.6 280034.3 280231.7 280427.9 280622.8 280816.5 281009.0 281200.4
 G, KJ/KG       -664032.3-665679.4-667326.9-668974.9-670623.3-672272.2-673921.6-675571.4
 S, KJ/(KG)(K)   164.6786 164.7265 164.7741 164.8213 164.8683 164.9150 164.9614 165.0075

 M, (1/n)           1.020    1.020    1.020    1.020    1.019    1.019    1.019    1.019
 (dLV/dLP)t      -1.01177 -1.01161 -1.01144 -1.01128 -1.01112 -1.01096 -1.01081 -1.01066
 (dLV/dLT)p        1.1095   1.1078   1.1061   1.1044   1.1028   1.1012   1.0996   1.0980
 Cp, KJ/(KG)(K)   28.9756  28.8338  28.6948  28.5586  28.4251  28.2944  28.1663  28.0408
 GAMMAs            1.5025   1.5045   1.5064   1.5082   1.5101   1.5119   1.5138   1.5156
 SON VEL,M/SEC     8593.0   8606.4   8619.8   8633.0   8646.2   8659.3   8672.4   8685.4

 TRANSPORT PROPERTIES (GASES ONLY)
   CONDUCTIVITY IN UNITS OF MILLIWATTS/(CM)(K)

 VISC,MILLIPOISE  0.65261  0.65334  0.65408  0.65483  0.65557  0.65632  0.65708  0.65783

  WITH EQUILIBRIUM REACTIONS

 Cp, KJ/(KG)(K)   28.9756  28.8338  28.6948  28.5586  28.4251  28.2944  28.1663  28.0408
 CONDUCTIVITY     29.8542  29.7213  29.5914  29.4644  29.3403  29.2191  29.1006  28.9848
 PRANDTL NUMBER    0.6334   0.6338   0.6343   0.6347   0.6351   0.6356   0.6360   0.6364

  WITH FROZEN REACTIONS

 Cp, KJ/(KG)(K)   20.6258  20.6251  20.6244  20.6238  20.6232  20.6226  20.6221  20.6215
 CONDUCTIVITY     19.9896  20.0152  20.0409  20.0666  20.0924  20.1183  20.1443  20.1703
 PRANDTL NUMBER    0.6734   0.6733   0.6731   0.6730   0.6729   0.6728   0.6727   0.6725

 MOLE FRACTIONS

 *e-              0.00003  0.00003  0.00004  0.00004  0.00004  0.00004  0.00004  0.00004
 *H               0.98774  0.98792  0.98809  0.98827  0.98844  0.98860  0.98877  0.98893
 *H+              0.00003  0.00003  0.00004  0.00004  0.00004  0.00004  0.00004  0.00004
 *H2              0.01219  0.01201  0.01183  0.01166  0.01149  0.01132  0.01115  0.01099

  * THERMODYNAMIC PROPERTIES FITTED TO 20000.K

 NOTE. WEIGHT FRACTION OF FUEL IN TOTAL FUELS AND OF OXIDANT IN TOTAL OXIDANTS









               THERMODYNAMIC EQUILIBRIUM PROPERTIES AT ASSIGNED

                           TEMPERATURE AND PRESSURE

 CASE =                

             REACTANT                    WT FRACTION      ENERGY      TEMP
                                          (SEE NOTE)     KJ/KG-MOL      K  
             H2                           1.0000000         0.000      0.000

 O/F=    0.00000  %FUEL=100.000000  R,EQ.RATIO= 0.000000  PHI,EQ.RATIO= 0.000000

 THERMODYNAMIC PROPERTIES

 P, BAR            3.5000   3.5000   3.5000   3.5000   3.9000   3.9000   3.9000   3.9000
 T, K             6110.00  6120.00  6130.00  6140.00  6000.00  6010.00  6020.00  6030.00
 RHO, KG/CU M    7.0192-3 7.0066-3 6.9941-3 6.9816-3 7.9912-3 7.9762-3 7.9613-3 7.9465-3
 H, KJ/KG        331254.2 331532.7 331810.1 332086.3 327465.0 327767.4 328068.2 328367.3
 U, KJ/KG        281390.7 281579.8 281767.9 281954.9 278661.3 278872.1 279081.4 279289.2
 G, KJ/KG       -677221.7-678872.5-680523.7-682175.4-653809.2-655444.9-657081.1-658717.8
 S, KJ/(KG)(K)   165.0533 165.0989 165.1442 165.1892 163.5457 163.5961 163.6461 163.6957

 M, (1/n)           1.019    1.019    1.018    1.018    1.022    1.022    1.022    1.022
 (dLV/dLP)t      -1.01051 -1.01036 -1.01021 -1.01007 -1.01360 -1.01341 -1.01322 -1.01303
 (dLV/dLT)p        1.0965   1.0950   1.0936   1.0921   1.1270   1.1250   1.1230   1.1211
 Cp, KJ/(KG)(K)   27.9178  27.7973  27.6793  27.5636  30.3242  30.1584  29.9960  29.8367
 GAMMAs            1.5174   1.5191   1.5209   1.5226   1.4861   1.4881   1.4902   1.4921
 SON VEL,M/SEC     8698.3   8711.2   8724.0   8736.7   8516.3   8530.1   8543.9   8557.5

 TRANSPORT PROPERTIES (GASES ONLY)
   CONDUCTIVITY IN UNITS OF MILLIWATTS/(CM)(K)

 VISC,MILLIPOISE  0.65859  0.65936  0.66012  0.66089  0.65223  0.65294  0.65364  0.65435

  WITH EQUILIBRIUM REACTIONS

 Cp, KJ/(KG)(K)   27.9178  27.7973  27.6793  27.5636  30.3242  30.1584  29.9960  29.8367
 CONDUCTIVITY     28.8717  28.7613  28.6534  28.5480  31.4039  31.2444  31.0884  30.9358
 PRANDTL NUMBER    0.6368   0.6373   0.6377   0.6381   0.6298   0.6302   0.6307   0.6311

  WITH FROZEN REACTIONS

 Cp, KJ/(KG)(K)   20.6210  20.6206  20.6201  20.6197  20.6286  20.6278  20.6270  20.6263
 CONDUCTIVITY     20.1964  20.2225  20.2487  20.2750  19.9464  19.9714  19.9964  20.0215
 PRANDTL NUMBER    0.6724   0.6723   0.6722   0.6721   0.6745   0.6744   0.6743   0.6741

 MOLE FRACTIONS

 *e-              0.00004  0.00004  0.00004  0.00004  0.00003  0.00003  0.00003  0.00003
 *H               0.98909  0.98924  0.98940  0.98955  0.98576  0.98598  0.98618  0.98639
 *H+              0.00004  0.00004  0.00004  0.00004  0.00003  0.00003  0.00003  0.00003
 *H2              0.01083  0.01067  0.01052  0.01037  0.01418  0.01396  0.01375  0.01355

  * THERMODYNAMIC PROPERTIES FITTED TO 20000.K

 NOTE. WEIGHT FRACTION OF FUEL IN TOTAL FUELS AND OF OXIDANT IN TOTAL OXIDANTS









               THERMODYNAMIC EQUILIBRIUM PROPERTIES AT ASSIGNED

                           TEMPERATURE AND PRESSURE

 CASE =                

             REACTANT                    WT FRACTION      ENERGY      TEMP
                                          (SEE NOTE)     KJ/KG-MOL      K  
             H2                           1.0000000         0.000      0.000

 O/F=    0.00000  %FUEL=100.000000  R,EQ.RATIO= 0.000000  PHI,EQ.RATIO= 0.000000

 THERMODYNAMIC PROPERTIES

 P, BAR            3.9000   3.9000   3.9000   3.9000   3.9000   3.9000   3.9000   3.9000
 T, K             6040.00  6050.00  6060.00  6070.00  6080.00  6090.00  6100.00  6110.00
 RHO, KG/CU M    7.9318-3 7.9171-3 7.9025-3 7.8880-3 7.8736-3 7.8592-3 7.8449-3 7.8307-3
 H, KJ/KG        328664.9 328961.0 329255.5 329548.5 329840.1 330130.3 330419.0 330706.4
 U, KJ/KG        279495.6 279700.6 279904.3 280106.5 280307.5 280507.1 280705.5 280902.6
 G, KJ/KG       -660355.0-661992.7-663630.9-665269.6-666908.7-668548.3-670188.4-671829.0
 S, KJ/(KG)(K)   163.7450 163.7940 163.8426 163.8910 163.9389 163.9866 164.0340 164.0811

 M, (1/n)           1.021    1.021    1.021    1.021    1.021    1.020    1.020    1.020
 (dLV/dLP)t      -1.01284 -1.01266 -1.01248 -1.01231 -1.01213 -1.01196 -1.01180 -1.01163
 (dLV/dLT)p        1.1192   1.1173   1.1155   1.1137   1.1119   1.1102   1.1085   1.1068
 Cp, KJ/(KG)(K)   29.6807  29.5277  29.3778  29.2309  29.0869  28.9458  28.8075  28.6719
 GAMMAs            1.4941   1.4961   1.4980   1.4999   1.5018   1.5037   1.5056   1.5074
 SON VEL,M/SEC     8571.2   8584.7   8598.2   8611.6   8625.0   8638.3   8651.5   8664.7

 TRANSPORT PROPERTIES (GASES ONLY)
   CONDUCTIVITY IN UNITS OF MILLIWATTS/(CM)(K)

 VISC,MILLIPOISE  0.65507  0.65579  0.65651  0.65723  0.65796  0.65870  0.65944  0.66018

  WITH EQUILIBRIUM REACTIONS

 Cp, KJ/(KG)(K)   29.6807  29.5277  29.3778  29.2309  29.0869  28.9458  28.8075  28.6719
 CONDUCTIVITY     30.7865  30.6405  30.4978  30.3581  30.2216  30.0881  29.9575  29.8299
 PRANDTL NUMBER    0.6315   0.6320   0.6324   0.6328   0.6333   0.6337   0.6341   0.6345

  WITH FROZEN REACTIONS

 Cp, KJ/(KG)(K)   20.6256  20.6250  20.6243  20.6237  20.6231  20.6226  20.6221  20.6216
 CONDUCTIVITY     20.0467  20.0720  20.0974  20.1228  20.1483  20.1739  20.1995  20.2253
 PRANDTL NUMBER    0.6740   0.6739   0.6737   0.6736   0.6735   0.6733   0.6732   0.6731

 MOLE FRACTIONS

 *e-              0.00003  0.00003  0.00003  0.00004  0.00004  0.00004  0.00004  0.00004
 *H               0.98658  0.98678  0.98697  0.98716  0.98735  0.98753  0.98771  0.98788
 *H+              0.00003  0.00003  0.00003  0.00004  0.00004  0.00004  0.00004  0.00004
 *H2              0.01335  0.01315  0.01296  0.01277  0.01258  0.01240  0.01222  0.01204

  * THERMODYNAMIC PROPERTIES FITTED TO 20000.K

 NOTE. WEIGHT FRACTION OF FUEL IN TOTAL FUELS AND OF OXIDANT IN TOTAL OXIDANTS









               THERMODYNAMIC EQUILIBRIUM PROPERTIES AT ASSIGNED

                           TEMPERATURE AND PRESSURE

 CASE =                

             REACTANT                    WT FRACTION      ENERGY      TEMP
                                          (SEE NOTE)     KJ/KG-MOL      K  
             H2                           1.0000000         0.000      0.000

 O/F=    0.00000  %FUEL=100.000000  R,EQ.RATIO= 0.000000  PHI,EQ.RATIO= 0.000000

 THERMODYNAMIC PROPERTIES

 P, BAR            3.9000   3.9000   3.9000   4.4000   4.4000   4.4000   4.4000   4.4000
 T, K             6120.00  6130.00  6140.00  6000.00  6010.00  6020.00  6030.00  6040.00
 RHO, KG/CU M    7.8166-3 7.8025-3 7.7885-3 9.0314-3 9.0142-3 8.9972-3 8.9802-3 8.9634-3
 H, KJ/KG        330992.5 331277.2 331560.7 326674.6 326988.0 327299.6 327609.5 327917.5
 U, KJ/KG        281098.5 281293.2 281486.7 277955.5 278176.3 278395.4 278612.9 278828.8
 G, KJ/KG       -673470.1-675111.6-676753.5-647927.1-649551.7-651176.8-652802.4-654428.6
 S, KJ/(KG)(K)   164.1279 164.1744 164.2206 162.4336 162.4858 162.5376 162.5890 162.6401

 M, (1/n)           1.020    1.020    1.020    1.024    1.024    1.023    1.023    1.023
 (dLV/dLP)t      -1.01147 -1.01131 -1.01116 -1.01521 -1.01499 -1.01478 -1.01457 -1.01437
 (dLV/dLT)p        1.1052   1.1035   1.1019   1.1420   1.1397   1.1375   1.1354   1.1333
 Cp, KJ/(KG)(K)   28.5390  28.4088  28.2811  31.4349  31.2512  31.0711  30.8945  30.7213
 GAMMAs            1.5093   1.5111   1.5129   1.4742   1.4762   1.4783   1.4803   1.4823
 SON VEL,M/SEC     8677.8   8690.8   8703.8   8474.7   8488.7   8502.6   8516.5   8530.3

 TRANSPORT PROPERTIES (GASES ONLY)
   CONDUCTIVITY IN UNITS OF MILLIWATTS/(CM)(K)

 VISC,MILLIPOISE  0.66092  0.66167  0.66242  0.65447  0.65514  0.65582  0.65651  0.65720

  WITH EQUILIBRIUM REACTIONS

 Cp, KJ/(KG)(K)   28.5390  28.4088  28.2811  31.4349  31.2512  31.0711  30.8945  30.7213
 CONDUCTIVITY     29.7051  29.5831  29.4639  32.7969  32.6167  32.4402  32.2675  32.0985
 PRANDTL NUMBER    0.6350   0.6354   0.6358   0.6273   0.6277   0.6281   0.6286   0.6290

  WITH FROZEN REACTIONS

 Cp, KJ/(KG)(K)   20.6211  20.6206  20.6202  20.6292  20.6284  20.6277  20.6270  20.6263
 CONDUCTIVITY     20.2511  20.2769  20.3029  19.9874  20.0119  20.0364  20.0610  20.0857
 PRANDTL NUMBER    0.6730   0.6729   0.6728   0.6755   0.6753   0.6752   0.6750   0.6749

 MOLE FRACTIONS

 *e-              0.00004  0.00004  0.00004  0.00003  0.00003  0.00003  0.00003  0.00003
 *H               0.98806  0.98823  0.98839  0.98401  0.98424  0.98448  0.98470  0.98493
 *H+              0.00004  0.00004  0.00004  0.00003  0.00003  0.00003  0.00003  0.00003
 *H2              0.01186  0.01169  0.01152  0.01594  0.01570  0.01546  0.01524  0.01501

  * THERMODYNAMIC PROPERTIES FITTED TO 20000.K

 NOTE. WEIGHT FRACTION OF FUEL IN TOTAL FUELS AND OF OXIDANT IN TOTAL OXIDANTS









               THERMODYNAMIC EQUILIBRIUM PROPERTIES AT ASSIGNED

                           TEMPERATURE AND PRESSURE

 CASE =                

             REACTANT                    WT FRACTION      ENERGY      TEMP
                                          (SEE NOTE)     KJ/KG-MOL      K  
             H2                           1.0000000         0.000      0.000

 O/F=    0.00000  %FUEL=100.000000  R,EQ.RATIO= 0.000000  PHI,EQ.RATIO= 0.000000

 THERMODYNAMIC PROPERTIES

 P, BAR            4.4000   4.4000   4.4000   4.4000   4.4000   4.4000   4.4000   4.4000
 T, K             6050.00  6060.00  6070.00  6080.00  6090.00  6100.00  6110.00  6120.00
 RHO, KG/CU M    8.9466-3 8.9299-3 8.9133-3 8.8968-3 8.8804-3 8.8640-3 8.8478-3 8.8316-3
 H, KJ/KG        328223.9 328528.6 328831.6 329133.0 329432.9 329731.1 330027.9 330323.2
 U, KJ/KG        279043.1 279255.9 279467.2 279677.1 279885.4 280092.4 280298.0 280502.2
 G, KJ/KG       -656055.2-657682.4-659310.1-660938.2-662566.9-664196.0-665825.7-667455.8
 S, KJ/(KG)(K)   162.6908 162.7411 162.7910 162.8407 162.8899 162.9389 162.9875 163.0358

 M, (1/n)           1.023    1.023    1.022    1.022    1.022    1.022    1.022    1.021
 (dLV/dLP)t      -1.01417 -1.01397 -1.01377 -1.01358 -1.01339 -1.01320 -1.01302 -1.01284
 (dLV/dLT)p        1.1312   1.1292   1.1271   1.1252   1.1232   1.1213   1.1195   1.1177
 Cp, KJ/(KG)(K)   30.5516  30.3851  30.2219  30.0619  29.9050  29.7512  29.6004  29.4525
 GAMMAs            1.4844   1.4863   1.4883   1.4903   1.4922   1.4942   1.4961   1.4980
 SON VEL,M/SEC     8544.1   8557.8   8571.5   8585.1   8598.6   8612.1   8625.5   8638.8

 TRANSPORT PROPERTIES (GASES ONLY)
   CONDUCTIVITY IN UNITS OF MILLIWATTS/(CM)(K)

 VISC,MILLIPOISE  0.65789  0.65859  0.65929  0.65999  0.66070  0.66142  0.66213  0.66286

  WITH EQUILIBRIUM REACTIONS

 Cp, KJ/(KG)(K)   30.5516  30.3851  30.2219  30.0619  29.9050  29.7512  29.6004  29.4525
 CONDUCTIVITY     31.9330  31.7710  31.6125  31.4574  31.3056  31.1570  31.0117  30.8695
 PRANDTL NUMBER    0.6294   0.6299   0.6303   0.6307   0.6311   0.6316   0.6320   0.6324

  WITH FROZEN REACTIONS

 Cp, KJ/(KG)(K)   20.6256  20.6250  20.6244  20.6238  20.6232  20.6227  20.6222  20.6217
 CONDUCTIVITY     20.1105  20.1354  20.1604  20.1855  20.2106  20.2358  20.2611  20.2864
 PRANDTL NUMBER    0.6747   0.6746   0.6745   0.6743   0.6742   0.6741   0.6739   0.6738

 MOLE FRACTIONS

 *e-              0.00003  0.00003  0.00003  0.00003  0.00003  0.00004  0.00004  0.00004
 *H               0.98515  0.98536  0.98558  0.98578  0.98599  0.98619  0.98639  0.98658
 *H+              0.00003  0.00003  0.00003  0.00003  0.00003  0.00004  0.00004  0.00004
 *H2              0.01479  0.01457  0.01436  0.01415  0.01394  0.01374  0.01354  0.01334

  * THERMODYNAMIC PROPERTIES FITTED TO 20000.K

 NOTE. WEIGHT FRACTION OF FUEL IN TOTAL FUELS AND OF OXIDANT IN TOTAL OXIDANTS









               THERMODYNAMIC EQUILIBRIUM PROPERTIES AT ASSIGNED

                           TEMPERATURE AND PRESSURE

 CASE =                

             REACTANT                    WT FRACTION      ENERGY      TEMP
                                          (SEE NOTE)     KJ/KG-MOL      K  
             H2                           1.0000000         0.000      0.000

 O/F=    0.00000  %FUEL=100.000000  R,EQ.RATIO= 0.000000  PHI,EQ.RATIO= 0.000000

 THERMODYNAMIC PROPERTIES

 P, BAR            4.4000   4.4000   4.9000   4.9000   4.9000   4.9000   4.9000   4.9000
 T, K             6130.00  6140.00  6000.00  6010.00  6020.00  6030.00  6040.00  6050.00
 RHO, KG/CU M    8.8155-3 8.7995-3 1.0075-2 1.0056-2 1.0036-2 1.0017-2 9.9982-3 9.9792-3
 H, KJ/KG        330616.9 330909.3 325892.8 326217.1 326539.3 326859.6 327177.9 327494.4
 U, KJ/KG        280705.1 280906.6 277257.5 277488.1 277716.8 277943.8 278169.0 278392.5
 G, KJ/KG       -669086.4-670717.4-642687.9-644302.4-645917.5-647533.2-649149.4-650766.1
 S, KJ/(KG)(K)   163.0837 163.1314 161.4301 161.4841 161.5377 161.5908 161.6436 161.6959

 M, (1/n)           1.021    1.021    1.026    1.025    1.025    1.025    1.025    1.024
 (dLV/dLP)t      -1.01267 -1.01249 -1.01679 -1.01655 -1.01632 -1.01609 -1.01587 -1.01564
 (dLV/dLT)p        1.1159   1.1141   1.1567   1.1542   1.1518   1.1494   1.1471   1.1448
 Cp, KJ/(KG)(K)   29.3075  29.1654  32.5229  32.3220  32.1249  31.9316  31.7421  31.5561
 GAMMAs            1.4998   1.5017   1.4634   1.4655   1.4676   1.4696   1.4717   1.4737
 SON VEL,M/SEC     8652.1   8665.4   8436.4   8450.6   8464.7   8478.7   8492.7   8506.7

 TRANSPORT PROPERTIES (GASES ONLY)
   CONDUCTIVITY IN UNITS OF MILLIWATTS/(CM)(K)

 VISC,MILLIPOISE  0.66358  0.66431  0.65667  0.65732  0.65797  0.65863  0.65930  0.65997

  WITH EQUILIBRIUM REACTIONS

 Cp, KJ/(KG)(K)   29.3075  29.1654  32.5229  32.3220  32.1249  31.9316  31.7421  31.5561
 CONDUCTIVITY     30.7304  30.5942  34.1659  33.9656  33.7694  33.5772  33.3890  33.2046
 PRANDTL NUMBER    0.6329   0.6333   0.6251   0.6255   0.6259   0.6264   0.6268   0.6272

  WITH FROZEN REACTIONS

 Cp, KJ/(KG)(K)   20.6213  20.6208  20.6298  20.6290  20.6283  20.6276  20.6269  20.6262
 CONDUCTIVITY     20.3119  20.3374  20.0280  20.0519  20.0760  20.1001  20.1244  20.1487
 PRANDTL NUMBER    0.6737   0.6736   0.6764   0.6762   0.6761   0.6759   0.6758   0.6756

 MOLE FRACTIONS

 *e-              0.00004  0.00004  0.00003  0.00003  0.00003  0.00003  0.00003  0.00003
 *H               0.98677  0.98696  0.98226  0.98252  0.98278  0.98303  0.98328  0.98352
 *H+              0.00004  0.00004  0.00003  0.00003  0.00003  0.00003  0.00003  0.00003
 *H2              0.01315  0.01296  0.01768  0.01742  0.01716  0.01691  0.01666  0.01642

  * THERMODYNAMIC PROPERTIES FITTED TO 20000.K

 NOTE. WEIGHT FRACTION OF FUEL IN TOTAL FUELS AND OF OXIDANT IN TOTAL OXIDANTS









               THERMODYNAMIC EQUILIBRIUM PROPERTIES AT ASSIGNED

                           TEMPERATURE AND PRESSURE

 CASE =                

             REACTANT                    WT FRACTION      ENERGY      TEMP
                                          (SEE NOTE)     KJ/KG-MOL      K  
             H2                           1.0000000         0.000      0.000

 O/F=    0.00000  %FUEL=100.000000  R,EQ.RATIO= 0.000000  PHI,EQ.RATIO= 0.000000

 THERMODYNAMIC PROPERTIES

 P, BAR            4.9000   4.9000   4.9000   4.9000   4.9000   4.9000   4.9000   4.9000
 T, K             6060.00  6070.00  6080.00  6090.00  6100.00  6110.00  6120.00  6130.00
 RHO, KG/CU M    9.9604-3 9.9417-3 9.9230-3 9.9045-3 9.8861-3 9.8678-3 9.8495-3 9.8314-3
 H, KJ/KG        327809.1 328121.9 328433.0 328742.3 329050.0 329355.9 329660.2 329962.9
 U, KJ/KG        278614.3 278834.4 279053.0 279270.0 279485.4 279699.2 279911.6 280122.6
 G, KJ/KG       -652383.3-654001.0-655619.3-657238.0-658857.3-660477.1-662097.3-663718.1
 S, KJ/(KG)(K)   161.7479 161.7995 161.8507 161.9015 161.9520 162.0021 162.0519 162.1013

 M, (1/n)           1.024    1.024    1.024    1.024    1.023    1.023    1.023    1.023
 (dLV/dLP)t      -1.01543 -1.01521 -1.01500 -1.01480 -1.01459 -1.01439 -1.01419 -1.01400
 (dLV/dLT)p        1.1426   1.1404   1.1382   1.1361   1.1340   1.1320   1.1300   1.1280
 Cp, KJ/(KG)(K)   31.3738  31.1949  31.0195  30.8474  30.6787  30.5132  30.3508  30.1916
 GAMMAs            1.4758   1.4778   1.4798   1.4818   1.4837   1.4857   1.4876   1.4895
 SON VEL,M/SEC     8520.5   8534.4   8548.2   8561.9   8575.6   8589.2   8602.7   8616.2

 TRANSPORT PROPERTIES (GASES ONLY)
   CONDUCTIVITY IN UNITS OF MILLIWATTS/(CM)(K)

 VISC,MILLIPOISE  0.66064  0.66132  0.66200  0.66268  0.66337  0.66407  0.66477  0.66547

  WITH EQUILIBRIUM REACTIONS

 Cp, KJ/(KG)(K)   31.3738  31.1949  31.0195  30.8474  30.6787  30.5132  30.3508  30.1916
 CONDUCTIVITY     33.0241  32.8473  32.6742  32.5047  32.3387  32.1761  32.0170  31.8612
 PRANDTL NUMBER    0.6276   0.6280   0.6285   0.6289   0.6293   0.6297   0.6302   0.6306

  WITH FROZEN REACTIONS

 Cp, KJ/(KG)(K)   20.6256  20.6250  20.6244  20.6239  20.6234  20.6229  20.6224  20.6219
 CONDUCTIVITY     20.1731  20.1977  20.2223  20.2469  20.2717  20.2966  20.3215  20.3465
 PRANDTL NUMBER    0.6755   0.6753   0.6752   0.6750   0.6749   0.6747   0.6746   0.6745

 MOLE FRACTIONS

 *e-              0.00003  0.00003  0.00003  0.00003  0.00003  0.00003  0.00004  0.00004
 *H               0.98376  0.98400  0.98423  0.98446  0.98468  0.98490  0.98511  0.98532
 *H+              0.00003  0.00003  0.00003  0.00003  0.00003  0.00003  0.00004  0.00004
 *H2              0.01617  0.01594  0.01571  0.01548  0.01525  0.01503  0.01482  0.01460

  * THERMODYNAMIC PROPERTIES FITTED TO 20000.K

 NOTE. WEIGHT FRACTION OF FUEL IN TOTAL FUELS AND OF OXIDANT IN TOTAL OXIDANTS









               THERMODYNAMIC EQUILIBRIUM PROPERTIES AT ASSIGNED

                           TEMPERATURE AND PRESSURE

 CASE =                

             REACTANT                    WT FRACTION      ENERGY      TEMP
                                          (SEE NOTE)     KJ/KG-MOL      K  
             H2                           1.0000000         0.000      0.000

 O/F=    0.00000  %FUEL=100.000000  R,EQ.RATIO= 0.000000  PHI,EQ.RATIO= 0.000000

 THERMODYNAMIC PROPERTIES

 P, BAR            4.9000   5.4000   5.4000   5.4000   5.4000   5.4000   5.4000   5.4000
 T, K             6140.00  6000.00  6010.00  6020.00  6030.00  6040.00  6050.00  6060.00
 RHO, KG/CU M    9.8133-3 1.1122-2 1.1100-2 1.1079-2 1.1057-2 1.1036-2 1.1015-2 1.0994-2
 H, KJ/KG        330264.1 325119.5 325454.3 325787.0 326117.5 326445.9 326772.4 327096.8
 U, KJ/KG        280332.1 276567.1 276807.2 277045.4 277281.6 277515.9 277748.4 277979.0
 G, KJ/KG       -665339.4-637966.2-639571.7-641177.6-642784.2-644391.2-645998.9-647607.0
 S, KJ/(KG)(K)   162.1504 160.5143 160.5700 160.6253 160.6802 160.7346 160.7886 160.8422

 M, (1/n)           1.022    1.027    1.027    1.027    1.027    1.026    1.026    1.026
 (dLV/dLP)t      -1.01381 -1.01834 -1.01808 -1.01783 -1.01758 -1.01734 -1.01710 -1.01686
 (dLV/dLT)p        1.1261   1.1711   1.1684   1.1658   1.1633   1.1608   1.1583   1.1558
 Cp, KJ/(KG)(K)   30.0355  33.5886  33.3712  33.1579  32.9485  32.7432  32.5417  32.3440
 GAMMAs            1.4914   1.4536   1.4558   1.4578   1.4599   1.4620   1.4641   1.4661
 SON VEL,M/SEC     8629.7   8401.1   8415.4   8429.6   8443.8   8457.9   8472.0   8486.0

 TRANSPORT PROPERTIES (GASES ONLY)
   CONDUCTIVITY IN UNITS OF MILLIWATTS/(CM)(K)

 VISC,MILLIPOISE  0.66618  0.65885  0.65947  0.66010  0.66073  0.66137  0.66201  0.66266

  WITH EQUILIBRIUM REACTIONS

 Cp, KJ/(KG)(K)   30.0355  33.5886  33.3712  33.1579  32.9485  32.7432  32.5417  32.3440
 CONDUCTIVITY     31.7087  35.5112  35.2915  35.0763  34.8653  34.6585  34.4559  34.2574
 PRANDTL NUMBER    0.6310   0.6232   0.6236   0.6240   0.6244   0.6248   0.6252   0.6257

  WITH FROZEN REACTIONS

 Cp, KJ/(KG)(K)   20.6215  20.6304  20.6297  20.6289  20.6282  20.6275  20.6269  20.6263
 CONDUCTIVITY     20.3716  20.0682  20.0916  20.1152  20.1389  20.1627  20.1865  20.2105
 PRANDTL NUMBER    0.6743   0.6773   0.6771   0.6770   0.6768   0.6766   0.6765   0.6763

 MOLE FRACTIONS

 *e-              0.00004  0.00003  0.00003  0.00003  0.00003  0.00003  0.00003  0.00003
 *H               0.98553  0.98053  0.98082  0.98110  0.98137  0.98165  0.98191  0.98217
 *H+              0.00004  0.00003  0.00003  0.00003  0.00003  0.00003  0.00003  0.00003
 *H2              0.01439  0.01942  0.01913  0.01885  0.01857  0.01830  0.01803  0.01777

  * THERMODYNAMIC PROPERTIES FITTED TO 20000.K

 NOTE. WEIGHT FRACTION OF FUEL IN TOTAL FUELS AND OF OXIDANT IN TOTAL OXIDANTS









               THERMODYNAMIC EQUILIBRIUM PROPERTIES AT ASSIGNED

                           TEMPERATURE AND PRESSURE

 CASE =                

             REACTANT                    WT FRACTION      ENERGY      TEMP
                                          (SEE NOTE)     KJ/KG-MOL      K  
             H2                           1.0000000         0.000      0.000

 O/F=    0.00000  %FUEL=100.000000  R,EQ.RATIO= 0.000000  PHI,EQ.RATIO= 0.000000

 THERMODYNAMIC PROPERTIES

 P, BAR            5.4000   5.4000   5.4000   5.4000   5.4000   5.4000   5.4000   5.4000
 T, K             6070.00  6080.00  6090.00  6100.00  6110.00  6120.00  6130.00  6140.00
 RHO, KG/CU M    1.0973-2 1.0952-2 1.0932-2 1.0911-2 1.0891-2 1.0870-2 1.0850-2 1.0830-2
 H, KJ/KG        327419.2 327739.8 328058.5 328375.3 328690.3 329003.5 329315.0 329624.7
 U, KJ/KG        278207.9 278435.0 278660.4 278884.1 279106.2 279326.6 279545.5 279762.8
 G, KJ/KG       -649215.7-650824.9-652434.7-654044.9-655655.7-657267.0-658878.8-660491.1
 S, KJ/(KG)(K)   160.8954 160.9481 161.0005 161.0525 161.1041 161.1553 161.2062 161.2567

 M, (1/n)           1.026    1.025    1.025    1.025    1.025    1.024    1.024    1.024
 (dLV/dLP)t      -1.01663 -1.01640 -1.01618 -1.01596 -1.01574 -1.01552 -1.01531 -1.01511
 (dLV/dLT)p        1.1535   1.1511   1.1488   1.1465   1.1443   1.1421   1.1400   1.1379
 Cp, KJ/(KG)(K)   32.1501  31.9598  31.7731  31.5900  31.4103  31.2340  31.0611  30.8914
 GAMMAs            1.4681   1.4702   1.4722   1.4742   1.4762   1.4781   1.4801   1.4820
 SON VEL,M/SEC     8500.0   8513.9   8527.8   8541.6   8555.4   8569.1   8582.7   8596.4

 TRANSPORT PROPERTIES (GASES ONLY)
   CONDUCTIVITY IN UNITS OF MILLIWATTS/(CM)(K)

 VISC,MILLIPOISE  0.66332  0.66398  0.66464  0.66531  0.66598  0.66666  0.66734  0.66802

  WITH EQUILIBRIUM REACTIONS

 Cp, KJ/(KG)(K)   32.1501  31.9598  31.7731  31.5900  31.4103  31.2340  31.0611  30.8914
 CONDUCTIVITY     34.0629  33.8723  33.6856  33.5027  33.3235  33.1479  32.9760  32.8075
 PRANDTL NUMBER    0.6261   0.6265   0.6269   0.6273   0.6277   0.6282   0.6286   0.6290

  WITH FROZEN REACTIONS

 Cp, KJ/(KG)(K)   20.6257  20.6251  20.6245  20.6240  20.6235  20.6230  20.6226  20.6222
 CONDUCTIVITY     20.2346  20.2587  20.2830  20.3073  20.3318  20.3563  20.3809  20.4056
 PRANDTL NUMBER    0.6761   0.6760   0.6758   0.6757   0.6755   0.6754   0.6753   0.6751

 MOLE FRACTIONS

 *e-              0.00003  0.00003  0.00003  0.00003  0.00003  0.00003  0.00003  0.00004
 *H               0.98243  0.98268  0.98293  0.98318  0.98342  0.98365  0.98388  0.98411
 *H+              0.00003  0.00003  0.00003  0.00003  0.00003  0.00003  0.00003  0.00004
 *H2              0.01751  0.01725  0.01700  0.01676  0.01652  0.01628  0.01605  0.01582

  * THERMODYNAMIC PROPERTIES FITTED TO 20000.K

 NOTE. WEIGHT FRACTION OF FUEL IN TOTAL FUELS AND OF OXIDANT IN TOTAL OXIDANTS









               THERMODYNAMIC EQUILIBRIUM PROPERTIES AT ASSIGNED

                           TEMPERATURE AND PRESSURE

 CASE =                

             REACTANT                    WT FRACTION      ENERGY      TEMP
                                          (SEE NOTE)     KJ/KG-MOL      K  
             H2                           1.0000000         0.000      0.000

 O/F=    0.00000  %FUEL=100.000000  R,EQ.RATIO= 0.000000  PHI,EQ.RATIO= 0.000000

 THERMODYNAMIC PROPERTIES

 P, BAR            6.0000   6.0000   6.0000   6.0000   6.0000   6.0000   6.0000   6.0000
 T, K             6000.00  6010.00  6020.00  6030.00  6040.00  6050.00  6060.00  6070.00
 RHO, KG/CU M    1.2383-2 1.2358-2 1.2334-2 1.2310-2 1.2286-2 1.2262-2 1.2238-2 1.2215-2
 H, KJ/KG        324202.3 324549.5 324894.4 325236.9 325577.2 325915.3 326251.3 326585.0
 U, KJ/KG        275748.2 275999.5 276248.8 276495.9 276740.9 276984.0 277225.0 277464.1
 G, KJ/KG       -632855.8-634451.2-636047.2-637643.7-639240.8-640838.5-642436.7-644035.5
 S, KJ/(KG)(K)   159.5097 159.5675 159.6248 159.6817 159.7381 159.7940 159.8495 159.9045

 M, (1/n)           1.030    1.029    1.029    1.029    1.028    1.028    1.028    1.027
 (dLV/dLP)t      -1.02016 -1.01988 -1.01961 -1.01934 -1.01908 -1.01882 -1.01856 -1.01830
 (dLV/dLT)p        1.1881   1.1852   1.1824   1.1796   1.1768   1.1741   1.1715   1.1688
 Cp, KJ/(KG)(K)   34.8386  34.6023  34.3703  34.1426  33.9191  33.6998  33.4845  33.2732
 GAMMAs            1.4431   1.4452   1.4473   1.4494   1.4515   1.4535   1.4556   1.4577
 SON VEL,M/SEC     8362.0   8376.4   8390.8   8405.0   8419.3   8433.5   8447.7   8461.8

 TRANSPORT PROPERTIES (GASES ONLY)
   CONDUCTIVITY IN UNITS OF MILLIWATTS/(CM)(K)

 VISC,MILLIPOISE  0.66142  0.66201  0.66261  0.66321  0.66382  0.66444  0.66506  0.66569

  WITH EQUILIBRIUM REACTIONS

 Cp, KJ/(KG)(K)   34.8386  34.6023  34.3703  34.1426  33.9191  33.6998  33.4845  33.2732
 CONDUCTIVITY     37.0952  36.8532  36.6158  36.3831  36.1549  35.9312  35.7118  35.4968
 PRANDTL NUMBER    0.6212   0.6216   0.6220   0.6224   0.6228   0.6232   0.6236   0.6240

  WITH FROZEN REACTIONS

 Cp, KJ/(KG)(K)   20.6312  20.6304  20.6297  20.6290  20.6283  20.6277  20.6270  20.6264
 CONDUCTIVITY     20.1158  20.1387  20.1617  20.1849  20.2081  20.2314  20.2549  20.2784
 PRANDTL NUMBER    0.6784   0.6782   0.6780   0.6778   0.6776   0.6775   0.6773   0.6771

 MOLE FRACTIONS

 *e-              0.00002  0.00002  0.00003  0.00003  0.00003  0.00003  0.00003  0.00003
 *H               0.97847  0.97878  0.97909  0.97940  0.97970  0.97999  0.98028  0.98056
 *H+              0.00002  0.00002  0.00003  0.00003  0.00003  0.00003  0.00003  0.00003
 *H2              0.02149  0.02117  0.02086  0.02055  0.02025  0.01996  0.01967  0.01938

  * THERMODYNAMIC PROPERTIES FITTED TO 20000.K

 NOTE. WEIGHT FRACTION OF FUEL IN TOTAL FUELS AND OF OXIDANT IN TOTAL OXIDANTS









               THERMODYNAMIC EQUILIBRIUM PROPERTIES AT ASSIGNED

                           TEMPERATURE AND PRESSURE

 CASE =                

             REACTANT                    WT FRACTION      ENERGY      TEMP
                                          (SEE NOTE)     KJ/KG-MOL      K  
             H2                           1.0000000         0.000      0.000

 O/F=    0.00000  %FUEL=100.000000  R,EQ.RATIO= 0.000000  PHI,EQ.RATIO= 0.000000

 THERMODYNAMIC PROPERTIES

 P, BAR            6.0000   6.0000   6.0000   6.0000   6.0000   6.0000   6.0000   6.7000
 T, K             6080.00  6090.00  6100.00  6110.00  6120.00  6130.00  6140.00  6000.00
 RHO, KG/CU M    1.2191-2 1.2168-2 1.2145-2 1.2122-2 1.2099-2 1.2076-2 1.2053-2 1.3860-2
 H, KJ/KG        326916.7 327246.4 327574.0 327899.6 328223.3 328545.1 328865.1 323146.8
 U, KJ/KG        277701.3 277936.6 278170.1 278401.8 278631.7 278859.9 279086.3 274805.8
 G, KJ/KG       -645634.8-647234.6-648835.0-650436.0-652037.5-653639.4-655242.0-627515.2
 S, KJ/(KG)(K)   159.9591 160.0133 160.0671 160.1204 160.1733 160.2259 160.2780 158.4437

 M, (1/n)           1.027    1.027    1.027    1.026    1.026    1.026    1.026    1.032
 (dLV/dLP)t      -1.01806 -1.01781 -1.01757 -1.01733 -1.01710 -1.01687 -1.01664 -1.02224
 (dLV/dLT)p        1.1663   1.1638   1.1613   1.1589   1.1565   1.1541   1.1518   1.2075
 Cp, KJ/(KG)(K)   33.0658  32.8623  32.6625  32.4665  32.2741  32.0853  31.9000  36.2583
 GAMMAs            1.4597   1.4617   1.4638   1.4658   1.4678   1.4697   1.4717   1.4321
 SON VEL,M/SEC     8475.8   8489.9   8503.8   8517.8   8531.6   8545.4   8559.2   8320.4

 TRANSPORT PROPERTIES (GASES ONLY)
   CONDUCTIVITY IN UNITS OF MILLIWATTS/(CM)(K)

 VISC,MILLIPOISE  0.66632  0.66696  0.66760  0.66824  0.66889  0.66955  0.67021  0.66436

  WITH EQUILIBRIUM REACTIONS

 Cp, KJ/(KG)(K)   33.0658  32.8623  32.6625  32.4665  32.2741  32.0853  31.9000  36.2583
 CONDUCTIVITY     35.2860  35.0793  34.8768  34.6782  34.4836  34.2928  34.1058  38.9023
 PRANDTL NUMBER    0.6244   0.6248   0.6252   0.6256   0.6260   0.6264   0.6269   0.6192

  WITH FROZEN REACTIONS

 Cp, KJ/(KG)(K)   20.6259  20.6253  20.6248  20.6243  20.6238  20.6234  20.6229  20.6320
 CONDUCTIVITY     20.3021  20.3258  20.3496  20.3736  20.3976  20.4217  20.4459  20.1707
 PRANDTL NUMBER    0.6769   0.6768   0.6766   0.6765   0.6763   0.6762   0.6760   0.6796

 MOLE FRACTIONS

 *e-              0.00003  0.00003  0.00003  0.00003  0.00003  0.00003  0.00003  0.00002
 *H               0.98084  0.98112  0.98139  0.98165  0.98191  0.98217  0.98242  0.97608
 *H+              0.00003  0.00003  0.00003  0.00003  0.00003  0.00003  0.00003  0.00002
 *H2              0.01910  0.01882  0.01855  0.01829  0.01803  0.01777  0.01752  0.02388

  * THERMODYNAMIC PROPERTIES FITTED TO 20000.K

 NOTE. WEIGHT FRACTION OF FUEL IN TOTAL FUELS AND OF OXIDANT IN TOTAL OXIDANTS









               THERMODYNAMIC EQUILIBRIUM PROPERTIES AT ASSIGNED

                           TEMPERATURE AND PRESSURE

 CASE =                

             REACTANT                    WT FRACTION      ENERGY      TEMP
                                          (SEE NOTE)     KJ/KG-MOL      K  
             H2                           1.0000000         0.000      0.000

 O/F=    0.00000  %FUEL=100.000000  R,EQ.RATIO= 0.000000  PHI,EQ.RATIO= 0.000000

 THERMODYNAMIC PROPERTIES

 P, BAR            6.7000   6.7000   6.7000   6.7000   6.7000   6.7000   6.7000   6.7000
 T, K             6010.00  6020.00  6030.00  6040.00  6050.00  6060.00  6070.00  6080.00
 RHO, KG/CU M    1.3832-2 1.3804-2 1.3777-2 1.3750-2 1.3723-2 1.3696-2 1.3669-2 1.3642-2
 H, KJ/KG        323508.1 323866.8 324223.1 324576.8 324928.2 325277.2 325623.9 325968.3
 U, KJ/KG        275069.9 275331.7 275591.2 275848.5 276103.5 276356.4 276607.2 276855.9
 G, KJ/KG       -629099.9-630685.2-632271.2-633857.7-635444.8-637032.5-638620.7-640209.5
 S, KJ/(KG)(K)   158.5038 158.5635 158.6226 158.6812 158.7393 158.7970 158.8541 158.9108

 M, (1/n)           1.032    1.031    1.031    1.031    1.030    1.030    1.030    1.029
 (dLV/dLP)t      -1.02194 -1.02164 -1.02135 -1.02106 -1.02077 -1.02049 -1.02022 -1.01994
 (dLV/dLT)p        1.2043   1.2012   1.1982   1.1951   1.1922   1.1893   1.1864   1.1836
 Cp, KJ/(KG)(K)   36.0010  35.7483  35.5003  35.2567  35.0176  34.7828  34.5522  34.3258
 GAMMAs            1.4342   1.4363   1.4384   1.4405   1.4426   1.4446   1.4467   1.4487
 SON VEL,M/SEC     8334.9   8349.3   8363.7   8378.1   8392.4   8406.7   8420.9   8435.1

 TRANSPORT PROPERTIES (GASES ONLY)
   CONDUCTIVITY IN UNITS OF MILLIWATTS/(CM)(K)

 VISC,MILLIPOISE  0.66493  0.66549  0.66606  0.66664  0.66723  0.66782  0.66841  0.66901

  WITH EQUILIBRIUM REACTIONS

 Cp, KJ/(KG)(K)   36.0010  35.7483  35.5003  35.2567  35.0176  34.7828  34.5522  34.3258
 CONDUCTIVITY     38.6353  38.3734  38.1164  37.8643  37.6169  37.3743  37.1363  36.9028
 PRANDTL NUMBER    0.6196   0.6200   0.6203   0.6207   0.6211   0.6215   0.6219   0.6223

  WITH FROZEN REACTIONS

 Cp, KJ/(KG)(K)   20.6313  20.6305  20.6299  20.6292  20.6285  20.6279  20.6273  20.6268
 CONDUCTIVITY     20.1930  20.2153  20.2378  20.2604  20.2832  20.3060  20.3290  20.3520
 PRANDTL NUMBER    0.6794   0.6792   0.6790   0.6788   0.6786   0.6784   0.6782   0.6780

 MOLE FRACTIONS

 *e-              0.00002  0.00002  0.00002  0.00002  0.00003  0.00003  0.00003  0.00003
 *H               0.97643  0.97677  0.97711  0.97744  0.97777  0.97809  0.97840  0.97871
 *H+              0.00002  0.00002  0.00002  0.00002  0.00003  0.00003  0.00003  0.00003
 *H2              0.02353  0.02318  0.02284  0.02251  0.02218  0.02186  0.02155  0.02124

  * THERMODYNAMIC PROPERTIES FITTED TO 20000.K

 NOTE. WEIGHT FRACTION OF FUEL IN TOTAL FUELS AND OF OXIDANT IN TOTAL OXIDANTS









               THERMODYNAMIC EQUILIBRIUM PROPERTIES AT ASSIGNED

                           TEMPERATURE AND PRESSURE

 CASE =                

             REACTANT                    WT FRACTION      ENERGY      TEMP
                                          (SEE NOTE)     KJ/KG-MOL      K  
             H2                           1.0000000         0.000      0.000

 O/F=    0.00000  %FUEL=100.000000  R,EQ.RATIO= 0.000000  PHI,EQ.RATIO= 0.000000

 THERMODYNAMIC PROPERTIES

 P, BAR            6.7000   6.7000   6.7000   6.7000   6.7000   6.7000   7.4000   7.4000
 T, K             6090.00  6100.00  6110.00  6120.00  6130.00  6140.00  6000.00  6010.00
 RHO, KG/CU M    1.3616-2 1.3589-2 1.3563-2 1.3537-2 1.3511-2 1.3486-2 1.5343-2 1.5312-2
 H, KJ/KG        326310.4 326650.3 326988.1 327323.8 327657.4 327988.9 322106.4 322481.4
 U, KJ/KG        277102.5 277347.1 277589.8 277830.5 278069.3 278306.2 273877.0 274153.6
 G, KJ/KG       -641798.9-643388.9-644979.4-646570.4-648162.1-649754.2-622716.9-624291.9
 S, KJ/(KG)(K)   158.9671 159.0228 159.0782 159.1330 159.1875 159.2415 157.4706 157.5330

 M, (1/n)           1.029    1.029    1.028    1.028    1.028    1.028    1.034    1.034
 (dLV/dLP)t      -1.01968 -1.01941 -1.01915 -1.01890 -1.01864 -1.01840 -1.02428 -1.02395
 (dLV/dLT)p        1.1809   1.1782   1.1755   1.1729   1.1703   1.1678   1.2264   1.2230
 Cp, KJ/(KG)(K)   34.1036  33.8854  33.6711  33.4608  33.2543  33.0515  37.6374  37.3604
 GAMMAs            1.4508   1.4528   1.4548   1.4568   1.4588   1.4608   1.4224   1.4244
 SON VEL,M/SEC     8449.2   8463.3   8477.4   8491.4   8505.4   8519.3   8282.5   8297.0

 TRANSPORT PROPERTIES (GASES ONLY)
   CONDUCTIVITY IN UNITS OF MILLIWATTS/(CM)(K)

 VISC,MILLIPOISE  0.66962  0.67023  0.67085  0.67147  0.67209  0.67273  0.66726  0.66779

  WITH EQUILIBRIUM REACTIONS

 Cp, KJ/(KG)(K)   34.1036  33.8854  33.6711  33.4608  33.2543  33.0515  37.6374  37.3604
 CONDUCTIVITY     36.6738  36.4492  36.2289  36.0128  35.8009  35.5931  40.6668  40.3760
 PRANDTL NUMBER    0.6227   0.6231   0.6235   0.6239   0.6243   0.6247   0.6176   0.6179

  WITH FROZEN REACTIONS

 Cp, KJ/(KG)(K)   20.6262  20.6257  20.6252  20.6247  20.6243  20.6238  20.6329  20.6321
 CONDUCTIVITY     20.3752  20.3984  20.4218  20.4453  20.4688  20.4925  20.2248  20.2464
 PRANDTL NUMBER    0.6779   0.6777   0.6775   0.6774   0.6772   0.6770   0.6807   0.6805

 MOLE FRACTIONS

 *e-              0.00003  0.00003  0.00003  0.00003  0.00003  0.00003  0.00002  0.00002
 *H               0.97901  0.97931  0.97961  0.97989  0.98018  0.98046  0.97371  0.97410
 *H+              0.00003  0.00003  0.00003  0.00003  0.00003  0.00003  0.00002  0.00002
 *H2              0.02093  0.02063  0.02034  0.02005  0.01976  0.01948  0.02624  0.02586

  * THERMODYNAMIC PROPERTIES FITTED TO 20000.K

 NOTE. WEIGHT FRACTION OF FUEL IN TOTAL FUELS AND OF OXIDANT IN TOTAL OXIDANTS









               THERMODYNAMIC EQUILIBRIUM PROPERTIES AT ASSIGNED

                           TEMPERATURE AND PRESSURE

 CASE =                

             REACTANT                    WT FRACTION      ENERGY      TEMP
                                          (SEE NOTE)     KJ/KG-MOL      K  
             H2                           1.0000000         0.000      0.000

 O/F=    0.00000  %FUEL=100.000000  R,EQ.RATIO= 0.000000  PHI,EQ.RATIO= 0.000000

 THERMODYNAMIC PROPERTIES

 P, BAR            7.4000   7.4000   7.4000   7.4000   7.4000   7.4000   7.4000   7.4000
 T, K             6020.00  6030.00  6040.00  6050.00  6060.00  6070.00  6080.00  6090.00
 RHO, KG/CU M    1.5281-2 1.5250-2 1.5219-2 1.5189-2 1.5159-2 1.5129-2 1.5099-2 1.5069-2
 H, KJ/KG        322853.7 323223.2 323590.1 323954.4 324316.1 324675.4 325032.1 325386.5
 U, KJ/KG        274427.6 274699.1 274968.2 275235.0 275499.4 275761.5 276021.4 276279.1
 G, KJ/KG       -625867.5-627443.8-629020.6-630598.1-632176.2-633754.8-635334.1-636913.9
 S, KJ/(KG)(K)   157.5949 157.6562 157.7170 157.7773 157.8370 157.8962 157.9550 158.0132

 M, (1/n)           1.034    1.033    1.033    1.032    1.032    1.032    1.031    1.031
 (dLV/dLP)t      -1.02363 -1.02331 -1.02300 -1.02269 -1.02239 -1.02209 -1.02179 -1.02150
 (dLV/dLT)p        1.2196   1.2163   1.2131   1.2099   1.2067   1.2037   1.2006   1.1976
 Cp, KJ/(KG)(K)   37.0883  36.8210  36.5584  36.3005  36.0472  35.7984  35.5540  35.3140
 GAMMAs            1.4265   1.4286   1.4307   1.4327   1.4348   1.4369   1.4389   1.4409
 SON VEL,M/SEC     8311.5   8326.0   8340.4   8354.8   8369.1   8383.4   8397.7   8411.9

 TRANSPORT PROPERTIES (GASES ONLY)
   CONDUCTIVITY IN UNITS OF MILLIWATTS/(CM)(K)

 VISC,MILLIPOISE  0.66832  0.66886  0.66941  0.66996  0.67052  0.67109  0.67166  0.67224

  WITH EQUILIBRIUM REACTIONS

 Cp, KJ/(KG)(K)   37.0883  36.8210  36.5584  36.3005  36.0472  35.7984  35.5540  35.3140
 CONDUCTIVITY     40.0906  39.8104  39.5354  39.2655  39.0006  38.7406  38.4855  38.2351
 PRANDTL NUMBER    0.6183   0.6186   0.6190   0.6194   0.6197   0.6201   0.6205   0.6209

  WITH FROZEN REACTIONS

 Cp, KJ/(KG)(K)   20.6314  20.6307  20.6301  20.6294  20.6288  20.6282  20.6277  20.6271
 CONDUCTIVITY     20.2682  20.2901  20.3121  20.3342  20.3565  20.3789  20.4013  20.4239
 PRANDTL NUMBER    0.6803   0.6801   0.6799   0.6797   0.6795   0.6793   0.6791   0.6789

 MOLE FRACTIONS

 *e-              0.00002  0.00002  0.00002  0.00002  0.00002  0.00003  0.00003  0.00003
 *H               0.97447  0.97484  0.97520  0.97556  0.97591  0.97626  0.97659  0.97693
 *H+              0.00002  0.00002  0.00002  0.00002  0.00002  0.00003  0.00003  0.00003
 *H2              0.02548  0.02511  0.02475  0.02439  0.02404  0.02369  0.02335  0.02302

  * THERMODYNAMIC PROPERTIES FITTED TO 20000.K

 NOTE. WEIGHT FRACTION OF FUEL IN TOTAL FUELS AND OF OXIDANT IN TOTAL OXIDANTS









               THERMODYNAMIC EQUILIBRIUM PROPERTIES AT ASSIGNED

                           TEMPERATURE AND PRESSURE

 CASE =                

             REACTANT                    WT FRACTION      ENERGY      TEMP
                                          (SEE NOTE)     KJ/KG-MOL      K  
             H2                           1.0000000         0.000      0.000

 O/F=    0.00000  %FUEL=100.000000  R,EQ.RATIO= 0.000000  PHI,EQ.RATIO= 0.000000

 THERMODYNAMIC PROPERTIES

 P, BAR            7.4000   7.4000   7.4000   7.4000   7.4000   8.2500   8.2500   8.2500
 T, K             6100.00  6110.00  6120.00  6130.00  6140.00  6000.00  6010.00  6020.00
 RHO, KG/CU M    1.5039-2 1.5010-2 1.4981-2 1.4952-2 1.4923-2 1.7153-2 1.7118-2 1.7082-2
 H, KJ/KG        325738.4 326088.0 326435.4 326780.4 327123.3 320863.0 321254.1 321642.3
 U, KJ/KG        276534.6 276787.9 277039.2 277288.4 277535.6 272767.0 273058.1 273346.5
 G, KJ/KG       -638494.4-640075.4-641656.9-643239.1-644821.8-617479.9-619044.1-620609.0
 S, KJ/(KG)(K)   158.0709 158.1282 158.1850 158.2414 158.2972 156.3905 156.4556 156.5201

 M, (1/n)           1.031    1.030    1.030    1.030    1.030    1.037    1.037    1.036
 (dLV/dLP)t      -1.02122 -1.02094 -1.02066 -1.02039 -1.02012 -1.02668 -1.02632 -1.02598
 (dLV/dLT)p        1.1947   1.1918   1.1890   1.1862   1.1834   1.2488   1.2451   1.2414
 Cp, KJ/(KG)(K)   35.0782  34.8467  34.6192  34.3959  34.1765  39.2596  38.9601  38.6658
 GAMMAs            1.4430   1.4450   1.4470   1.4490   1.4510   1.4119   1.4139   1.4160
 SON VEL,M/SEC     8426.1   8440.3   8454.4   8468.5   8482.5   8240.5   8255.1   8269.6

 TRANSPORT PROPERTIES (GASES ONLY)
   CONDUCTIVITY IN UNITS OF MILLIWATTS/(CM)(K)

 VISC,MILLIPOISE  0.67282  0.67341  0.67400  0.67460  0.67520  0.67071  0.67120  0.67169

  WITH EQUILIBRIUM REACTIONS

 Cp, KJ/(KG)(K)   35.0782  34.8467  34.6192  34.3959  34.1765  39.2596  38.9601  38.6658
 CONDUCTIVITY     37.9893  37.7482  37.5116  37.2794  37.0516  42.7537  42.4356  42.1232
 PRANDTL NUMBER    0.6213   0.6216   0.6220   0.6224   0.6228   0.6159   0.6162   0.6166

  WITH FROZEN REACTIONS

 Cp, KJ/(KG)(K)   20.6266  20.6261  20.6256  20.6252  20.6247  20.6339  20.6331  20.6324
 CONDUCTIVITY     20.4466  20.4695  20.4924  20.5154  20.5386  20.2895  20.3104  20.3315
 PRANDTL NUMBER    0.6787   0.6786   0.6784   0.6782   0.6780   0.6821   0.6819   0.6816

 MOLE FRACTIONS

 *e-              0.00003  0.00003  0.00003  0.00003  0.00003  0.00002  0.00002  0.00002
 *H               0.97725  0.97758  0.97789  0.97820  0.97851  0.97087  0.97129  0.97171
 *H+              0.00003  0.00003  0.00003  0.00003  0.00003  0.00002  0.00002  0.00002
 *H2              0.02269  0.02237  0.02205  0.02174  0.02143  0.02909  0.02866  0.02825

  * THERMODYNAMIC PROPERTIES FITTED TO 20000.K

 NOTE. WEIGHT FRACTION OF FUEL IN TOTAL FUELS AND OF OXIDANT IN TOTAL OXIDANTS









               THERMODYNAMIC EQUILIBRIUM PROPERTIES AT ASSIGNED

                           TEMPERATURE AND PRESSURE

 CASE =                

             REACTANT                    WT FRACTION      ENERGY      TEMP
                                          (SEE NOTE)     KJ/KG-MOL      K  
             H2                           1.0000000         0.000      0.000

 O/F=    0.00000  %FUEL=100.000000  R,EQ.RATIO= 0.000000  PHI,EQ.RATIO= 0.000000

 THERMODYNAMIC PROPERTIES

 P, BAR            8.2500   8.2500   8.2500   8.2500   8.2500   8.2500   8.2500   8.2500
 T, K             6030.00  6040.00  6050.00  6060.00  6070.00  6080.00  6090.00  6100.00
 RHO, KG/CU M    1.7047-2 1.7012-2 1.6978-2 1.6943-2 1.6909-2 1.6875-2 1.6841-2 1.6808-2
 H, KJ/KG        322027.5 322409.8 322789.3 323166.1 323540.1 323911.5 324280.2 324646.4
 U, KJ/KG        273632.2 273915.4 274195.9 274473.9 274749.4 275022.5 275293.2 275561.5
 G, KJ/KG       -622174.5-623740.6-625307.4-626874.8-628442.9-630011.5-631580.8-633150.6
 S, KJ/(KG)(K)   156.5841 156.6474 156.7102 156.7724 156.8341 156.8952 156.9558 157.0159

 M, (1/n)           1.036    1.036    1.035    1.035    1.034    1.034    1.034    1.033
 (dLV/dLP)t      -1.02563 -1.02529 -1.02496 -1.02463 -1.02431 -1.02399 -1.02367 -1.02336
 (dLV/dLT)p        1.2378   1.2343   1.2308   1.2274   1.2241   1.2208   1.2175   1.2143
 Cp, KJ/(KG)(K)   38.3766  38.0924  37.8130  37.5386  37.2688  37.0038  36.7434  36.4875
 GAMMAs            1.4180   1.4201   1.4221   1.4242   1.4262   1.4283   1.4303   1.4323
 SON VEL,M/SEC     8284.1   8298.6   8313.1   8327.5   8341.8   8356.2   8370.5   8384.8

 TRANSPORT PROPERTIES (GASES ONLY)
   CONDUCTIVITY IN UNITS OF MILLIWATTS/(CM)(K)

 VISC,MILLIPOISE  0.67220  0.67271  0.67323  0.67375  0.67428  0.67482  0.67536  0.67591

  WITH EQUILIBRIUM REACTIONS

 Cp, KJ/(KG)(K)   38.3766  38.0924  37.8130  37.5386  37.2688  37.0038  36.7434  36.4875
 CONDUCTIVITY     41.8164  41.5150  41.2191  40.9284  40.6430  40.3628  40.0876  39.8174
 PRANDTL NUMBER    0.6169   0.6172   0.6176   0.6179   0.6183   0.6187   0.6190   0.6194

  WITH FROZEN REACTIONS

 Cp, KJ/(KG)(K)   20.6318  20.6311  20.6305  20.6299  20.6293  20.6287  20.6282  20.6277
 CONDUCTIVITY     20.3526  20.3739  20.3954  20.4169  20.4386  20.4604  20.4823  20.5044
 PRANDTL NUMBER    0.6814   0.6812   0.6810   0.6808   0.6806   0.6804   0.6802   0.6800

 MOLE FRACTIONS

 *e-              0.00002  0.00002  0.00002  0.00002  0.00002  0.00002  0.00003  0.00003
 *H               0.97212  0.97252  0.97291  0.97330  0.97368  0.97405  0.97442  0.97478
 *H+              0.00002  0.00002  0.00002  0.00002  0.00002  0.00002  0.00003  0.00003
 *H2              0.02784  0.02744  0.02704  0.02666  0.02627  0.02590  0.02553  0.02517

  * THERMODYNAMIC PROPERTIES FITTED TO 20000.K

 NOTE. WEIGHT FRACTION OF FUEL IN TOTAL FUELS AND OF OXIDANT IN TOTAL OXIDANTS









               THERMODYNAMIC EQUILIBRIUM PROPERTIES AT ASSIGNED

                           TEMPERATURE AND PRESSURE

 CASE =                

             REACTANT                    WT FRACTION      ENERGY      TEMP
                                          (SEE NOTE)     KJ/KG-MOL      K  
             H2                           1.0000000         0.000      0.000

 O/F=    0.00000  %FUEL=100.000000  R,EQ.RATIO= 0.000000  PHI,EQ.RATIO= 0.000000

 THERMODYNAMIC PROPERTIES

 P, BAR            8.2500   8.2500   8.2500   8.2500   9.1000   9.1000   9.1000   9.1000
 T, K             6110.00  6120.00  6130.00  6140.00  6000.00  6010.00  6020.00  6030.00
 RHO, KG/CU M    1.6774-2 1.6741-2 1.6708-2 1.6675-2 1.8972-2 1.8932-2 1.8892-2 1.8853-2
 H, KJ/KG        325010.0 325371.1 325729.8 326086.0 319640.8 320047.5 320450.9 320851.3
 U, KJ/KG        275827.5 276091.3 276352.8 276612.1 271675.8 271981.0 272283.3 272582.8
 G, KJ/KG       -634721.1-636292.2-637863.8-639436.0-612769.8-614324.2-615879.2-617434.9
 S, KJ/(KG)(K)   157.0755 157.1345 157.1931 157.2511 155.4018 155.4695 155.5366 155.6030

 M, (1/n)           1.033    1.033    1.032    1.032    1.040    1.040    1.039    1.039
 (dLV/dLP)t      -1.02305 -1.02275 -1.02246 -1.02216 -1.02901 -1.02863 -1.02826 -1.02789
 (dLV/dLT)p        1.2112   1.2081   1.2050   1.2020   1.2705   1.2665   1.2626   1.2588
 Cp, KJ/(KG)(K)   36.2360  35.9890  35.7462  35.5077  40.8262  40.5059  40.1909  39.8812
 GAMMAs            1.4343   1.4363   1.4383   1.4403   1.4026   1.4047   1.4067   1.4087
 SON VEL,M/SEC     8399.0   8413.2   8427.4   8441.5   8202.3   8216.9   8231.5   8246.0

 TRANSPORT PROPERTIES (GASES ONLY)
   CONDUCTIVITY IN UNITS OF MILLIWATTS/(CM)(K)

 VISC,MILLIPOISE  0.67646  0.67702  0.67759  0.67816  0.67408  0.67453  0.67500  0.67547

  WITH EQUILIBRIUM REACTIONS

 Cp, KJ/(KG)(K)   36.2360  35.9890  35.7462  35.5077  40.8262  40.5059  40.1909  39.8812
 CONDUCTIVITY     39.5521  39.2917  39.0359  38.7849  44.7817  44.4379  44.1001  43.7680
 PRANDTL NUMBER    0.6197   0.6201   0.6205   0.6209   0.6145   0.6148   0.6152   0.6155

  WITH FROZEN REACTIONS

 Cp, KJ/(KG)(K)   20.6272  20.6267  20.6263  20.6258  20.6349  20.6342  20.6335  20.6328
 CONDUCTIVITY     20.5266  20.5488  20.5712  20.5937  20.3531  20.3733  20.3937  20.4142
 PRANDTL NUMBER    0.6798   0.6796   0.6794   0.6792   0.6834   0.6832   0.6829   0.6827

 MOLE FRACTIONS

 *e-              0.00003  0.00003  0.00003  0.00003  0.00002  0.00002  0.00002  0.00002
 *H               0.97513  0.97548  0.97583  0.97617  0.96806  0.96852  0.96897  0.96942
 *H+              0.00003  0.00003  0.00003  0.00003  0.00002  0.00002  0.00002  0.00002
 *H2              0.02481  0.02446  0.02412  0.02378  0.03190  0.03144  0.03098  0.03054

  * THERMODYNAMIC PROPERTIES FITTED TO 20000.K

 NOTE. WEIGHT FRACTION OF FUEL IN TOTAL FUELS AND OF OXIDANT IN TOTAL OXIDANTS









               THERMODYNAMIC EQUILIBRIUM PROPERTIES AT ASSIGNED

                           TEMPERATURE AND PRESSURE

 CASE =                

             REACTANT                    WT FRACTION      ENERGY      TEMP
                                          (SEE NOTE)     KJ/KG-MOL      K  
             H2                           1.0000000         0.000      0.000

 O/F=    0.00000  %FUEL=100.000000  R,EQ.RATIO= 0.000000  PHI,EQ.RATIO= 0.000000

 THERMODYNAMIC PROPERTIES

 P, BAR            9.1000   9.1000   9.1000   9.1000   9.1000   9.1000   9.1000   9.1000
 T, K             6040.00  6050.00  6060.00  6070.00  6080.00  6090.00  6100.00  6110.00
 RHO, KG/CU M    1.8814-2 1.8775-2 1.8736-2 1.8698-2 1.8659-2 1.8621-2 1.8584-2 1.8546-2
 H, KJ/KG        321248.6 321642.8 322034.1 322422.5 322808.0 323190.7 323570.6 323947.8
 U, KJ/KG        272879.5 273173.4 273464.6 273753.1 274039.0 274322.3 274603.1 274881.4
 G, KJ/KG       -618991.3-620548.3-622106.0-623664.3-625223.2-626782.8-628343.0-629903.8
 S, KJ/(KG)(K)   155.6689 155.7341 155.7987 155.8627 155.9262 155.9891 156.0514 156.1132

 M, (1/n)           1.038    1.038    1.037    1.037    1.037    1.036    1.036    1.035
 (dLV/dLP)t      -1.02753 -1.02717 -1.02681 -1.02647 -1.02612 -1.02578 -1.02545 -1.02512
 (dLV/dLT)p        1.2550   1.2512   1.2476   1.2439   1.2404   1.2369   1.2334   1.2300
 Cp, KJ/(KG)(K)   39.5768  39.2774  38.9832  38.6939  38.4095  38.1299  37.8550  37.5849
 GAMMAs            1.4107   1.4128   1.4148   1.4168   1.4188   1.4208   1.4228   1.4248
 SON VEL,M/SEC     8260.5   8275.0   8289.5   8303.9   8318.3   8332.6   8347.0   8361.3

 TRANSPORT PROPERTIES (GASES ONLY)
   CONDUCTIVITY IN UNITS OF MILLIWATTS/(CM)(K)

 VISC,MILLIPOISE  0.67594  0.67643  0.67692  0.67741  0.67792  0.67842  0.67894  0.67946

  WITH EQUILIBRIUM REACTIONS

 Cp, KJ/(KG)(K)   39.5768  39.2774  38.9832  38.6939  38.4095  38.1299  37.8550  37.5849
 CONDUCTIVITY     43.4418  43.1212  42.8063  42.4968  42.1928  41.8941  41.6007  41.3124
 PRANDTL NUMBER    0.6158   0.6161   0.6165   0.6168   0.6171   0.6175   0.6178   0.6182

  WITH FROZEN REACTIONS

 Cp, KJ/(KG)(K)   20.6321  20.6315  20.6309  20.6303  20.6298  20.6293  20.6287  20.6283
 CONDUCTIVITY     20.4348  20.4555  20.4764  20.4974  20.5186  20.5399  20.5613  20.5828
 PRANDTL NUMBER    0.6825   0.6822   0.6820   0.6818   0.6816   0.6814   0.6812   0.6810

 MOLE FRACTIONS

 *e-              0.00002  0.00002  0.00002  0.00002  0.00002  0.00002  0.00002  0.00003
 *H               0.96986  0.97029  0.97071  0.97112  0.97153  0.97193  0.97233  0.97272
 *H+              0.00002  0.00002  0.00002  0.00002  0.00002  0.00002  0.00002  0.00003
 *H2              0.03010  0.02967  0.02925  0.02883  0.02842  0.02802  0.02762  0.02723

  * THERMODYNAMIC PROPERTIES FITTED TO 20000.K

 NOTE. WEIGHT FRACTION OF FUEL IN TOTAL FUELS AND OF OXIDANT IN TOTAL OXIDANTS









               THERMODYNAMIC EQUILIBRIUM PROPERTIES AT ASSIGNED

                           TEMPERATURE AND PRESSURE

 CASE =                

             REACTANT                    WT FRACTION      ENERGY      TEMP
                                          (SEE NOTE)     KJ/KG-MOL      K  
             H2                           1.0000000         0.000      0.000

 O/F=    0.00000  %FUEL=100.000000  R,EQ.RATIO= 0.000000  PHI,EQ.RATIO= 0.000000

 THERMODYNAMIC PROPERTIES

 P, BAR            9.1000   9.1000   9.1000   10.000   10.000   10.000   10.000   10.000
 T, K             6120.00  6130.00  6140.00  6000.00  6010.00  6020.00  6030.00  6040.00
 RHO, KG/CU M    1.8509-2 1.8472-2 1.8435-2 2.0908-2 2.0863-2 2.0819-2 2.0774-2 2.0730-2
 H, KJ/KG        324322.4 324694.2 325063.5 318369.0 318791.6 319210.7 319626.6 320039.2
 U, KJ/KG        275157.2 275430.7 275701.8 270540.4 270860.1 271176.6 271490.1 271800.6
 G, KJ/KG       -631465.3-633027.3-634590.0-608252.6-609797.3-611342.7-612888.8-614435.6
 S, KJ/(KG)(K)   156.1744 156.2352 156.2954 154.4369 154.5073 154.5770 154.6460 154.7144

 M, (1/n)           1.035    1.035    1.034    1.043    1.043    1.042    1.042    1.041
 (dLV/dLP)t      -1.02480 -1.02448 -1.02416 -1.03141 -1.03101 -1.03061 -1.03021 -1.02983
 (dLV/dLT)p        1.2267   1.2234   1.2202   1.2928   1.2886   1.2844   1.2803   1.2762
 Cp, KJ/(KG)(K)   37.3193  37.0583  36.8017  42.4271  42.0862  41.7509  41.4211  41.0966
 GAMMAs            1.4268   1.4288   1.4308   1.3940   1.3960   1.3980   1.3999   1.4019
 SON VEL,M/SEC     8375.5   8389.8   8404.0   8165.3   8179.9   8194.5   8209.0   8223.6

 TRANSPORT PROPERTIES (GASES ONLY)
   CONDUCTIVITY IN UNITS OF MILLIWATTS/(CM)(K)

 VISC,MILLIPOISE  0.67999  0.68053  0.68107  0.67757  0.67799  0.67842  0.67885  0.67930

  WITH EQUILIBRIUM REACTIONS

 Cp, KJ/(KG)(K)   37.3193  37.0583  36.8017  42.4271  42.0862  41.7509  41.4211  41.0966
 CONDUCTIVITY     41.0293  40.7512  40.4780  46.8673  46.4979  46.1347  45.7775  45.4264
 PRANDTL NUMBER    0.6185   0.6189   0.6192   0.6134   0.6137   0.6140   0.6143   0.6145

  WITH FROZEN REACTIONS

 Cp, KJ/(KG)(K)   20.6278  20.6273  20.6269  20.6359  20.6352  20.6345  20.6339  20.6332
 CONDUCTIVITY     20.6045  20.6263  20.6482  20.4193  20.4388  20.4585  20.4782  20.4982
 PRANDTL NUMBER    0.6808   0.6806   0.6804   0.6848   0.6845   0.6843   0.6840   0.6838

 MOLE FRACTIONS

 *e-              0.00003  0.00003  0.00003  0.00002  0.00002  0.00002  0.00002  0.00002
 *H               0.97310  0.97347  0.97384  0.96512  0.96562  0.96611  0.96660  0.96707
 *H+              0.00003  0.00003  0.00003  0.00002  0.00002  0.00002  0.00002  0.00002
 *H2              0.02685  0.02647  0.02610  0.03484  0.03434  0.03385  0.03336  0.03289

  * THERMODYNAMIC PROPERTIES FITTED TO 20000.K

 NOTE. WEIGHT FRACTION OF FUEL IN TOTAL FUELS AND OF OXIDANT IN TOTAL OXIDANTS









               THERMODYNAMIC EQUILIBRIUM PROPERTIES AT ASSIGNED

                           TEMPERATURE AND PRESSURE

 CASE =                

             REACTANT                    WT FRACTION      ENERGY      TEMP
                                          (SEE NOTE)     KJ/KG-MOL      K  
             H2                           1.0000000         0.000      0.000

 O/F=    0.00000  %FUEL=100.000000  R,EQ.RATIO= 0.000000  PHI,EQ.RATIO= 0.000000

 THERMODYNAMIC PROPERTIES

 P, BAR            10.000   10.000   10.000   10.000   10.000   10.000   10.000   10.000
 T, K             6050.00  6060.00  6070.00  6080.00  6090.00  6100.00  6110.00  6120.00
 RHO, KG/CU M    2.0687-2 2.0643-2 2.0600-2 2.0557-2 2.0515-2 2.0473-2 2.0431-2 2.0389-2
 H, KJ/KG        320448.5 320854.7 321257.8 321657.9 322054.9 322448.9 322840.1 323228.4
 U, KJ/KG        272108.2 272412.9 272714.7 273013.8 273310.1 273603.6 273894.6 274182.9
 G, KJ/KG       -615983.1-617531.3-619080.1-620629.6-622179.7-623730.5-625282.0-626834.0
 S, KJ/(KG)(K)   154.7821 154.8492 154.9156 154.9815 155.0467 155.1114 155.1755 155.2390

 M, (1/n)           1.041    1.040    1.040    1.039    1.039    1.038    1.038    1.038
 (dLV/dLP)t      -1.02944 -1.02906 -1.02869 -1.02832 -1.02796 -1.02760 -1.02725 -1.02690
 (dLV/dLT)p        1.2722   1.2683   1.2644   1.2606   1.2569   1.2532   1.2495   1.2460
 Cp, KJ/(KG)(K)   40.7775  40.4637  40.1550  39.8514  39.5528  39.2592  38.9704  38.6865
 GAMMAs            1.4039   1.4059   1.4079   1.4099   1.4119   1.4138   1.4158   1.4178
 SON VEL,M/SEC     8238.1   8252.6   8267.0   8281.5   8295.9   8310.2   8324.6   8338.9

 TRANSPORT PROPERTIES (GASES ONLY)
   CONDUCTIVITY IN UNITS OF MILLIWATTS/(CM)(K)

 VISC,MILLIPOISE  0.67974  0.68020  0.68066  0.68113  0.68161  0.68209  0.68258  0.68308

  WITH EQUILIBRIUM REACTIONS

 Cp, KJ/(KG)(K)   40.7775  40.4637  40.1550  39.8514  39.5528  39.2592  38.9704  38.6865
 CONDUCTIVITY     45.0813  44.7419  44.4084  44.0805  43.7583  43.4415  43.1302  42.8243
 PRANDTL NUMBER    0.6149   0.6152   0.6155   0.6158   0.6161   0.6164   0.6167   0.6171

  WITH FROZEN REACTIONS

 Cp, KJ/(KG)(K)   20.6326  20.6320  20.6314  20.6309  20.6304  20.6299  20.6294  20.6289
 CONDUCTIVITY     20.5182  20.5384  20.5588  20.5793  20.5999  20.6207  20.6416  20.6626
 PRANDTL NUMBER    0.6835   0.6833   0.6831   0.6828   0.6826   0.6824   0.6822   0.6820

 MOLE FRACTIONS

 *e-              0.00002  0.00002  0.00002  0.00002  0.00002  0.00002  0.00002  0.00002
 *H               0.96754  0.96800  0.96845  0.96889  0.96933  0.96976  0.97018  0.97060
 *H+              0.00002  0.00002  0.00002  0.00002  0.00002  0.00002  0.00002  0.00002
 *H2              0.03242  0.03196  0.03151  0.03106  0.03062  0.03019  0.02977  0.02935

  * THERMODYNAMIC PROPERTIES FITTED TO 20000.K

 NOTE. WEIGHT FRACTION OF FUEL IN TOTAL FUELS AND OF OXIDANT IN TOTAL OXIDANTS









               THERMODYNAMIC EQUILIBRIUM PROPERTIES AT ASSIGNED

                           TEMPERATURE AND PRESSURE

 CASE =                

             REACTANT                    WT FRACTION      ENERGY      TEMP
                                          (SEE NOTE)     KJ/KG-MOL      K  
             H2                           1.0000000         0.000      0.000

 O/F=    0.00000  %FUEL=100.000000  R,EQ.RATIO= 0.000000  PHI,EQ.RATIO= 0.000000

 THERMODYNAMIC PROPERTIES

 P, BAR            10.000   10.000   11.000   11.000   11.000   11.000   11.000   11.000
 T, K             6130.00  6140.00  6000.00  6010.00  6020.00  6030.00  6040.00  6050.00
 RHO, KG/CU M    2.0348-2 2.0307-2 2.3071-2 2.3020-2 2.2970-2 2.2920-2 2.2871-2 2.2822-2
 H, KJ/KG        323613.8 323996.5 316982.0 317421.6 317857.5 318290.0 318719.0 319144.5
 U, KJ/KG        274468.6 274751.8 269302.2 269637.3 269969.1 270297.6 270623.0 270945.2
 G, KJ/KG       -628386.7-629940.1-603701.0-605235.9-606771.4-608307.7-609844.7-611382.4
 S, KJ/(KG)(K)   155.3019 155.3643 153.4472 153.5204 153.5929 153.6646 153.7357 153.8061

 M, (1/n)           1.037    1.037    1.046    1.046    1.045    1.045    1.044    1.044
 (dLV/dLP)t      -1.02656 -1.02622 -1.03399 -1.03356 -1.03314 -1.03272 -1.03230 -1.03190
 (dLV/dLT)p        1.2424   1.2390   1.3169   1.3124   1.3079   1.3035   1.2992   1.2949
 Cp, KJ/(KG)(K)   38.4072  38.1327  44.1389  43.7770  43.4208  43.0702  42.7253  42.3858
 GAMMAs            1.4198   1.4217   1.3855   1.3874   1.3894   1.3913   1.3933   1.3952
 SON VEL,M/SEC     8353.2   8367.4   8127.7   8142.3   8156.9   8171.5   8186.0   8200.5

 TRANSPORT PROPERTIES (GASES ONLY)
   CONDUCTIVITY IN UNITS OF MILLIWATTS/(CM)(K)

 VISC,MILLIPOISE  0.68358  0.68409  0.68137  0.68175  0.68214  0.68253  0.68294  0.68335

  WITH EQUILIBRIUM REACTIONS

 Cp, KJ/(KG)(K)   38.4072  38.1327  44.1389  43.7770  43.4208  43.0702  42.7253  42.3858
 CONDUCTIVITY     42.5236  42.2281  49.1130  48.7170  48.3273  47.9441  47.5671  47.1962
 PRANDTL NUMBER    0.6174   0.6177   0.6124   0.6126   0.6129   0.6132   0.6134   0.6137

  WITH FROZEN REACTIONS

 Cp, KJ/(KG)(K)   20.6285  20.6280  20.6371  20.6364  20.6357  20.6350  20.6344  20.6338
 CONDUCTIVITY     20.6837  20.7050  20.4916  20.5103  20.5292  20.5482  20.5674  20.5867
 PRANDTL NUMBER    0.6818   0.6815   0.6862   0.6859   0.6857   0.6854   0.6852   0.6849

 MOLE FRACTIONS

 *e-              0.00003  0.00003  0.00002  0.00002  0.00002  0.00002  0.00002  0.00002
 *H               0.97101  0.97141  0.96190  0.96244  0.96297  0.96350  0.96401  0.96452
 *H+              0.00003  0.00003  0.00002  0.00002  0.00002  0.00002  0.00002  0.00002
 *H2              0.02894  0.02854  0.03807  0.03753  0.03699  0.03647  0.03595  0.03544

  * THERMODYNAMIC PROPERTIES FITTED TO 20000.K

 NOTE. WEIGHT FRACTION OF FUEL IN TOTAL FUELS AND OF OXIDANT IN TOTAL OXIDANTS









               THERMODYNAMIC EQUILIBRIUM PROPERTIES AT ASSIGNED

                           TEMPERATURE AND PRESSURE

 CASE =                

             REACTANT                    WT FRACTION      ENERGY      TEMP
                                          (SEE NOTE)     KJ/KG-MOL      K  
             H2                           1.0000000         0.000      0.000

 O/F=    0.00000  %FUEL=100.000000  R,EQ.RATIO= 0.000000  PHI,EQ.RATIO= 0.000000

 THERMODYNAMIC PROPERTIES

 P, BAR            11.000   11.000   11.000   11.000   11.000   11.000   11.000   11.000
 T, K             6060.00  6070.00  6080.00  6090.00  6100.00  6110.00  6120.00  6130.00
 RHO, KG/CU M    2.2773-2 2.2725-2 2.2677-2 2.2629-2 2.2582-2 2.2535-2 2.2488-2 2.2442-2
 H, KJ/KG        319566.7 319985.6 320401.2 320813.6 321222.8 321629.0 322032.0 322432.1
 U, KJ/KG        271264.4 271580.5 271893.7 272203.9 272511.2 272815.7 273117.4 273416.4
 G, KJ/KG       -612920.8-614459.9-615999.7-617540.2-619081.4-620623.2-622165.6-623708.8
 S, KJ/(KG)(K)   153.8758 153.9449 154.0133 154.0811 154.1482 154.2148 154.2807 154.3460

 M, (1/n)           1.043    1.043    1.042    1.042    1.041    1.041    1.040    1.040
 (dLV/dLP)t      -1.03149 -1.03110 -1.03070 -1.03032 -1.02993 -1.02956 -1.02919 -1.02882
 (dLV/dLT)p        1.2907   1.2866   1.2825   1.2785   1.2745   1.2706   1.2668   1.2630
 Cp, KJ/(KG)(K)   42.0518  41.7231  41.3996  41.0814  40.7683  40.4603  40.1572  39.8591
 GAMMAs            1.3972   1.3991   1.4011   1.4030   1.4050   1.4069   1.4089   1.4108
 SON VEL,M/SEC     8215.0   8229.5   8243.9   8258.4   8272.8   8287.1   8301.5   8315.8

 TRANSPORT PROPERTIES (GASES ONLY)
   CONDUCTIVITY IN UNITS OF MILLIWATTS/(CM)(K)

 VISC,MILLIPOISE  0.68377  0.68420  0.68463  0.68507  0.68552  0.68598  0.68644  0.68691

  WITH EQUILIBRIUM REACTIONS

 Cp, KJ/(KG)(K)   42.0518  41.7231  41.3996  41.0814  40.7683  40.4603  40.1572  39.8591
 CONDUCTIVITY     46.8315  46.4727  46.1200  45.7730  45.4318  45.0963  44.7664  44.4420
 PRANDTL NUMBER    0.6140   0.6143   0.6146   0.6149   0.6152   0.6155   0.6158   0.6161

  WITH FROZEN REACTIONS

 Cp, KJ/(KG)(K)   20.6332  20.6327  20.6321  20.6316  20.6311  20.6306  20.6301  20.6297
 CONDUCTIVITY     20.6062  20.6258  20.6456  20.6655  20.6856  20.7058  20.7261  20.7466
 PRANDTL NUMBER    0.6847   0.6844   0.6842   0.6839   0.6837   0.6835   0.6833   0.6830

 MOLE FRACTIONS

 *e-              0.00002  0.00002  0.00002  0.00002  0.00002  0.00002  0.00002  0.00002
 *H               0.96502  0.96551  0.96599  0.96647  0.96693  0.96739  0.96785  0.96829
 *H+              0.00002  0.00002  0.00002  0.00002  0.00002  0.00002  0.00002  0.00002
 *H2              0.03494  0.03445  0.03396  0.03349  0.03302  0.03256  0.03211  0.03166

  * THERMODYNAMIC PROPERTIES FITTED TO 20000.K

 NOTE. WEIGHT FRACTION OF FUEL IN TOTAL FUELS AND OF OXIDANT IN TOTAL OXIDANTS









               THERMODYNAMIC EQUILIBRIUM PROPERTIES AT ASSIGNED

                           TEMPERATURE AND PRESSURE

 CASE =                

             REACTANT                    WT FRACTION      ENERGY      TEMP
                                          (SEE NOTE)     KJ/KG-MOL      K  
             H2                           1.0000000         0.000      0.000

 O/F=    0.00000  %FUEL=100.000000  R,EQ.RATIO= 0.000000  PHI,EQ.RATIO= 0.000000

 THERMODYNAMIC PROPERTIES

 P, BAR            11.000
 T, K             6140.00
 RHO, KG/CU M    2.2396-2
 H, KJ/KG        322829.2
 U, KJ/KG        273712.7
 G, KJ/KG       -625252.6
 S, KJ/(KG)(K)   154.4107

 M, (1/n)           1.039
 (dLV/dLP)t      -1.02846
 (dLV/dLT)p        1.2593
 Cp, KJ/(KG)(K)   39.5658
 GAMMAs            1.4128
 SON VEL,M/SEC     8330.1

 TRANSPORT PROPERTIES (GASES ONLY)
   CONDUCTIVITY IN UNITS OF MILLIWATTS/(CM)(K)

 VISC,MILLIPOISE  0.68738

  WITH EQUILIBRIUM REACTIONS

 Cp, KJ/(KG)(K)   39.5658
 CONDUCTIVITY     44.1231
 PRANDTL NUMBER    0.6164

  WITH FROZEN REACTIONS

 Cp, KJ/(KG)(K)   20.6293
 CONDUCTIVITY     20.7672
 PRANDTL NUMBER    0.6828

 MOLE FRACTIONS

 *e-              0.00002
 *H               0.96873
 *H+              0.00002
 *H2              0.03122

  * THERMODYNAMIC PROPERTIES FITTED TO 20000.K

 NOTE. WEIGHT FRACTION OF FUEL IN TOTAL FUELS AND OF OXIDANT IN TOTAL OXIDANTS



  
