
 *******************************************************************************

         NASA-GLENN CHEMICAL EQUILIBRIUM PROGRAM CEA2, MAY 21, 2004
                   BY  BONNIE MCBRIDE AND SANFORD GORDON
      REFS: NASA RP-1311, PART I, 1994 AND NASA RP-1311, PART II, 1996

 *******************************************************************************



  prob tp ions
  p,bar= 0.54,0.6,0.67,0.74,0.825,0.91,1.0,1.1,1.2,1.32,1.48,1.65,1.8,2.0,2.25
  t,k= 6900,6910,6920,6930,6940,6950,6960,6970,6980,6990,7000,7010,7020,7030,7040
  
  reac
  na H2                wt%=100.0000
  
  output short
  output siunits
  output transport
  
 end





               THERMODYNAMIC EQUILIBRIUM PROPERTIES AT ASSIGNED

                           TEMPERATURE AND PRESSURE

 CASE =                

             REACTANT                    WT FRACTION      ENERGY      TEMP
                                          (SEE NOTE)     KJ/KG-MOL      K  
             H2                           1.0000000         0.000      0.000

 O/F=    0.00000  %FUEL=100.000000  R,EQ.RATIO= 0.000000  PHI,EQ.RATIO= 0.000000

 THERMODYNAMIC PROPERTIES

 P, BAR           0.54000  0.54000  0.54000  0.54000  0.54000  0.54000  0.54000  0.54000
 T, K             6900.00  6910.00  6920.00  6930.00  6940.00  6950.00  6960.00  6970.00
 RHO, KG/CU M    9.4879-4 9.4740-4 9.4602-4 9.4464-4 9.4326-4 9.4189-4 9.4052-4 9.3915-4
 H, KJ/KG        352915.5 353139.3 353363.3 353587.5 353811.9 354036.4 354261.2 354486.2
 U, KJ/KG        296001.0 296141.3 296281.9 296422.6 296563.5 296704.6 296845.9 296987.4
 G, KJ/KG       -915102.7-916940.6-918778.8-920617.3-922456.1-924295.3-926134.8-927974.6
 S, KJ/(KG)(K)   183.7708 183.8032 183.8356 183.8679 183.9003 183.9326 183.9649 183.9972

 M, (1/n)           1.008    1.008    1.008    1.008    1.008    1.008    1.008    1.008
 (dLV/dLP)t      -1.00086 -1.00086 -1.00086 -1.00086 -1.00086 -1.00086 -1.00085 -1.00085
 (dLV/dLT)p        1.0116   1.0117   1.0117   1.0118   1.0118   1.0119   1.0120   1.0120
 Cp, KJ/(KG)(K)   22.3716  22.3900  22.4086  22.4277  22.4471  22.4669  22.4871  22.5077
 GAMMAs            1.6037   1.6030   1.6024   1.6017   1.6010   1.6003   1.5996   1.5988
 SON VEL,M/SEC     9553.8   9558.8   9563.8   9568.7   9573.6   9578.4   9583.3   9588.0

 TRANSPORT PROPERTIES (GASES ONLY)
   CONDUCTIVITY IN UNITS OF MILLIWATTS/(CM)(K)

 VISC,MILLIPOISE  0.71802  0.71891  0.71980  0.72069  0.72158  0.72247  0.72336  0.72425

  WITH EQUILIBRIUM REACTIONS

 Cp, KJ/(KG)(K)   22.3716  22.3900  22.4086  22.4277  22.4471  22.4669  22.4871  22.5077
 CONDUCTIVITY     22.9827  23.0108  23.0389  23.0672  23.0956  23.1242  23.1529  23.1817
 PRANDTL NUMBER    0.6989   0.6995   0.7001   0.7007   0.7013   0.7019   0.7026   0.7032

  WITH FROZEN REACTIONS

 Cp, KJ/(KG)(K)   20.6313  20.6318  20.6323  20.6328  20.6333  20.6338  20.6343  20.6348
 CONDUCTIVITY     22.2892  22.3185  22.3478  22.3771  22.4064  22.4356  22.4649  22.4941
 PRANDTL NUMBER    0.6646   0.6646   0.6645   0.6645   0.6645   0.6644   0.6644   0.6644

 MOLE FRACTIONS

 *e-              0.00053  0.00054  0.00055  0.00056  0.00057  0.00058  0.00060  0.00061
 *H               0.99833  0.99832  0.99831  0.99830  0.99828  0.99827  0.99825  0.99824
 *H+              0.00053  0.00054  0.00055  0.00056  0.00057  0.00058  0.00060  0.00061
 *H2              0.00060  0.00059  0.00058  0.00058  0.00057  0.00056  0.00056  0.00055

  * THERMODYNAMIC PROPERTIES FITTED TO 20000.K

 NOTE. WEIGHT FRACTION OF FUEL IN TOTAL FUELS AND OF OXIDANT IN TOTAL OXIDANTS









               THERMODYNAMIC EQUILIBRIUM PROPERTIES AT ASSIGNED

                           TEMPERATURE AND PRESSURE

 CASE =                

             REACTANT                    WT FRACTION      ENERGY      TEMP
                                          (SEE NOTE)     KJ/KG-MOL      K  
             H2                           1.0000000         0.000      0.000

 O/F=    0.00000  %FUEL=100.000000  R,EQ.RATIO= 0.000000  PHI,EQ.RATIO= 0.000000

 THERMODYNAMIC PROPERTIES

 P, BAR           0.54000  0.54000  0.54000  0.54000  0.54000  0.54000  0.54000  0.60000
 T, K             6980.00  6990.00  7000.00  7010.00  7020.00  7030.00  7040.00  6900.00
 RHO, KG/CU M    9.3779-4 9.3643-4 9.3508-4 9.3373-4 9.3238-4 9.3104-4 9.2970-4 1.0543-3
 H, KJ/KG        354711.4 354936.7 355162.4 355388.2 355614.2 355840.5 356067.0 352845.4
 U, KJ/KG        297129.1 297271.0 297413.1 297555.4 297697.9 297840.7 297983.6 295936.2
 G, KJ/KG       -929814.7-931655.2-933495.9-935337.0-937178.5-939020.2-940862.3-909106.4
 S, KJ/(KG)(K)   184.0295 184.0618 184.0940 184.1263 184.1585 184.1907 184.2229 182.8916

 M, (1/n)           1.008    1.008    1.008    1.008    1.008    1.008    1.008    1.008
 (dLV/dLP)t      -1.00085 -1.00085 -1.00085 -1.00085 -1.00085 -1.00085 -1.00085 -1.00092
 (dLV/dLT)p        1.0121   1.0122   1.0123   1.0123   1.0124   1.0125   1.0126   1.0118
 Cp, KJ/(KG)(K)   22.5286  22.5499  22.5716  22.5937  22.6162  22.6391  22.6623  22.3341
 GAMMAs            1.5981   1.5973   1.5966   1.5958   1.5950   1.5943   1.5935   1.6055
 SON VEL,M/SEC     9592.8   9597.5   9602.2   9606.8   9611.4   9616.0   9620.5   9558.6

 TRANSPORT PROPERTIES (GASES ONLY)
   CONDUCTIVITY IN UNITS OF MILLIWATTS/(CM)(K)

 VISC,MILLIPOISE  0.72513  0.72602  0.72690  0.72778  0.72866  0.72954  0.73042  0.71832

  WITH EQUILIBRIUM REACTIONS

 Cp, KJ/(KG)(K)   22.5286  22.5499  22.5716  22.5937  22.6162  22.6391  22.6623  22.3341
 CONDUCTIVITY     23.2107  23.2398  23.2690  23.2983  23.3278  23.3574  23.3871  23.0211
 PRANDTL NUMBER    0.7038   0.7045   0.7051   0.7058   0.7064   0.7071   0.7078   0.6969

  WITH FROZEN REACTIONS

 Cp, KJ/(KG)(K)   20.6353  20.6358  20.6363  20.6368  20.6373  20.6378  20.6384  20.6308
 CONDUCTIVITY     22.5234  22.5526  22.5817  22.6109  22.6401  22.6692  22.6983  22.2932
 PRANDTL NUMBER    0.6643   0.6643   0.6643   0.6642   0.6642   0.6642   0.6641   0.6648

 MOLE FRACTIONS

 *e-              0.00062  0.00063  0.00064  0.00065  0.00066  0.00067  0.00069  0.00051
 *H               0.99822  0.99820  0.99819  0.99817  0.99815  0.99814  0.99812  0.99832
 *H+              0.00062  0.00063  0.00064  0.00065  0.00066  0.00067  0.00069  0.00051
 *H2              0.00054  0.00054  0.00053  0.00053  0.00052  0.00051  0.00051  0.00066

  * THERMODYNAMIC PROPERTIES FITTED TO 20000.K

 NOTE. WEIGHT FRACTION OF FUEL IN TOTAL FUELS AND OF OXIDANT IN TOTAL OXIDANTS









               THERMODYNAMIC EQUILIBRIUM PROPERTIES AT ASSIGNED

                           TEMPERATURE AND PRESSURE

 CASE =                

             REACTANT                    WT FRACTION      ENERGY      TEMP
                                          (SEE NOTE)     KJ/KG-MOL      K  
             H2                           1.0000000         0.000      0.000

 O/F=    0.00000  %FUEL=100.000000  R,EQ.RATIO= 0.000000  PHI,EQ.RATIO= 0.000000

 THERMODYNAMIC PROPERTIES

 P, BAR           0.60000  0.60000  0.60000  0.60000  0.60000  0.60000  0.60000  0.60000
 T, K             6910.00  6920.00  6930.00  6940.00  6950.00  6960.00  6970.00  6980.00
 RHO, KG/CU M    1.0528-3 1.0512-3 1.0497-3 1.0482-3 1.0466-3 1.0451-3 1.0436-3 1.0421-3
 H, KJ/KG        353068.8 353292.4 353516.1 353740.1 353964.2 354188.5 354413.0 354637.7
 U, KJ/KG        296076.1 296216.3 296356.6 296497.0 296637.7 296778.5 296919.5 297060.7
 G, KJ/KG       -910935.5-912764.9-914594.6-916424.7-918255.0-920085.7-921916.7-923748.1
 S, KJ/(KG)(K)   182.9239 182.9563 182.9886 183.0209 183.0531 183.0854 183.1176 183.1498

 M, (1/n)           1.008    1.008    1.008    1.008    1.008    1.008    1.008    1.008
 (dLV/dLP)t      -1.00091 -1.00091 -1.00091 -1.00091 -1.00090 -1.00090 -1.00090 -1.00090
 (dLV/dLT)p        1.0118   1.0119   1.0119   1.0120   1.0120   1.0121   1.0121   1.0122
 Cp, KJ/(KG)(K)   22.3507  22.3677  22.3851  22.4028  22.4209  22.4394  22.4582  22.4774
 GAMMAs            1.6049   1.6042   1.6036   1.6029   1.6023   1.6016   1.6009   1.6002
 SON VEL,M/SEC     9563.8   9568.9   9573.9   9579.0   9584.0   9589.0   9593.9   9598.8

 TRANSPORT PROPERTIES (GASES ONLY)
   CONDUCTIVITY IN UNITS OF MILLIWATTS/(CM)(K)

 VISC,MILLIPOISE  0.71921  0.72011  0.72100  0.72190  0.72279  0.72368  0.72457  0.72546

  WITH EQUILIBRIUM REACTIONS

 Cp, KJ/(KG)(K)   22.3507  22.3677  22.3851  22.4028  22.4209  22.4394  22.4582  22.4774
 CONDUCTIVITY     23.0483  23.0757  23.1032  23.1308  23.1586  23.1866  23.2146  23.2428
 PRANDTL NUMBER    0.6974   0.6980   0.6986   0.6992   0.6998   0.7004   0.7010   0.7016

  WITH FROZEN REACTIONS

 Cp, KJ/(KG)(K)   20.6313  20.6318  20.6322  20.6327  20.6332  20.6337  20.6342  20.6347
 CONDUCTIVITY     22.3226  22.3519  22.3812  22.4106  22.4399  22.4692  22.4985  22.5278
 PRANDTL NUMBER    0.6647   0.6647   0.6647   0.6646   0.6646   0.6646   0.6645   0.6645

 MOLE FRACTIONS

 *e-              0.00052  0.00053  0.00053  0.00054  0.00055  0.00056  0.00057  0.00059
 *H               0.99831  0.99830  0.99829  0.99828  0.99826  0.99825  0.99824  0.99822
 *H+              0.00052  0.00053  0.00053  0.00054  0.00055  0.00056  0.00057  0.00059
 *H2              0.00066  0.00065  0.00064  0.00063  0.00063  0.00062  0.00061  0.00061

  * THERMODYNAMIC PROPERTIES FITTED TO 20000.K

 NOTE. WEIGHT FRACTION OF FUEL IN TOTAL FUELS AND OF OXIDANT IN TOTAL OXIDANTS









               THERMODYNAMIC EQUILIBRIUM PROPERTIES AT ASSIGNED

                           TEMPERATURE AND PRESSURE

 CASE =                

             REACTANT                    WT FRACTION      ENERGY      TEMP
                                          (SEE NOTE)     KJ/KG-MOL      K  
             H2                           1.0000000         0.000      0.000

 O/F=    0.00000  %FUEL=100.000000  R,EQ.RATIO= 0.000000  PHI,EQ.RATIO= 0.000000

 THERMODYNAMIC PROPERTIES

 P, BAR           0.60000  0.60000  0.60000  0.60000  0.60000  0.60000  0.67000  0.67000
 T, K             6990.00  7000.00  7010.00  7020.00  7030.00  7040.00  6900.00  6910.00
 RHO, KG/CU M    1.0406-3 1.0391-3 1.0376-3 1.0361-3 1.0346-3 1.0331-3 1.1774-3 1.1757-3
 H, KJ/KG        354862.5 355087.6 355312.9 355538.4 355764.0 355989.9 352770.5 352993.6
 U, KJ/KG        297202.1 297343.6 297485.4 297627.4 297769.5 297911.9 295867.2 296006.8
 G, KJ/KG       -925579.7-927411.7-929244.0-931076.7-932909.6-934742.9-902826.9-904646.8
 S, KJ/(KG)(K)   183.1820 183.2142 183.2463 183.2785 183.3106 183.3427 181.9706 182.0029

 M, (1/n)           1.008    1.008    1.008    1.008    1.008    1.008    1.008    1.008
 (dLV/dLP)t      -1.00090 -1.00089 -1.00089 -1.00089 -1.00089 -1.00089 -1.00098 -1.00098
 (dLV/dLT)p        1.0123   1.0123   1.0124   1.0125   1.0125   1.0126   1.0121   1.0121
 Cp, KJ/(KG)(K)   22.4970  22.5170  22.5373  22.5580  22.5791  22.6005  22.3030  22.3179
 GAMMAs            1.5995   1.5988   1.5981   1.5974   1.5966   1.5959   1.6071   1.6065
 SON VEL,M/SEC     9603.6   9608.5   9613.2   9618.0   9622.7   9627.4   9563.0   9568.3

 TRANSPORT PROPERTIES (GASES ONLY)
   CONDUCTIVITY IN UNITS OF MILLIWATTS/(CM)(K)

 VISC,MILLIPOISE  0.72635  0.72723  0.72812  0.72900  0.72989  0.73077  0.71863  0.71953

  WITH EQUILIBRIUM REACTIONS

 Cp, KJ/(KG)(K)   22.4970  22.5170  22.5373  22.5580  22.5791  22.6005  22.3030  22.3179
 CONDUCTIVITY     23.2712  23.2997  23.3283  23.3570  23.3859  23.4149  23.0677  23.0940
 PRANDTL NUMBER    0.7022   0.7028   0.7034   0.7041   0.7047   0.7054   0.6948   0.6954

  WITH FROZEN REACTIONS

 Cp, KJ/(KG)(K)   20.6352  20.6357  20.6362  20.6367  20.6372  20.6377  20.6303  20.6308
 CONDUCTIVITY     22.5570  22.5863  22.6155  22.6447  22.6739  22.7031  22.2974  22.3268
 PRANDTL NUMBER    0.6645   0.6644   0.6644   0.6644   0.6643   0.6643   0.6649   0.6649

 MOLE FRACTIONS

 *e-              0.00060  0.00061  0.00062  0.00063  0.00064  0.00065  0.00048  0.00049
 *H               0.99821  0.99819  0.99818  0.99816  0.99815  0.99813  0.99830  0.99829
 *H+              0.00060  0.00061  0.00062  0.00063  0.00064  0.00065  0.00048  0.00049
 *H2              0.00060  0.00059  0.00058  0.00058  0.00057  0.00057  0.00074  0.00073

  * THERMODYNAMIC PROPERTIES FITTED TO 20000.K

 NOTE. WEIGHT FRACTION OF FUEL IN TOTAL FUELS AND OF OXIDANT IN TOTAL OXIDANTS









               THERMODYNAMIC EQUILIBRIUM PROPERTIES AT ASSIGNED

                           TEMPERATURE AND PRESSURE

 CASE =                

             REACTANT                    WT FRACTION      ENERGY      TEMP
                                          (SEE NOTE)     KJ/KG-MOL      K  
             H2                           1.0000000         0.000      0.000

 O/F=    0.00000  %FUEL=100.000000  R,EQ.RATIO= 0.000000  PHI,EQ.RATIO= 0.000000

 THERMODYNAMIC PROPERTIES

 P, BAR           0.67000  0.67000  0.67000  0.67000  0.67000  0.67000  0.67000  0.67000
 T, K             6920.00  6930.00  6940.00  6950.00  6960.00  6970.00  6980.00  6990.00
 RHO, KG/CU M    1.1740-3 1.1723-3 1.1706-3 1.1689-3 1.1672-3 1.1655-3 1.1638-3 1.1621-3
 H, KJ/KG        353216.8 353440.2 353663.8 353887.5 354111.4 354335.5 354559.7 354784.1
 U, KJ/KG        296146.6 296286.6 296426.7 296566.9 296707.3 296847.9 296988.6 297129.5
 G, KJ/KG       -906467.0-908287.5-910108.3-911929.5-913751.0-915572.8-917394.9-919217.3
 S, KJ/(KG)(K)   182.0352 182.0675 182.0997 182.1319 182.1641 182.1963 182.2285 182.2606

 M, (1/n)           1.008    1.008    1.008    1.008    1.008    1.008    1.008    1.008
 (dLV/dLP)t      -1.00097 -1.00097 -1.00096 -1.00096 -1.00096 -1.00096 -1.00095 -1.00095
 (dLV/dLT)p        1.0121   1.0122   1.0122   1.0122   1.0123   1.0123   1.0124   1.0124
 Cp, KJ/(KG)(K)   22.3331  22.3487  22.3647  22.3810  22.3977  22.4147  22.4321  22.4499
 GAMMAs            1.6060   1.6054   1.6048   1.6042   1.6035   1.6029   1.6023   1.6016
 SON VEL,M/SEC     9573.5   9578.8   9584.0   9589.1   9594.2   9599.3   9604.4   9609.4

 TRANSPORT PROPERTIES (GASES ONLY)
   CONDUCTIVITY IN UNITS OF MILLIWATTS/(CM)(K)

 VISC,MILLIPOISE  0.72043  0.72133  0.72222  0.72312  0.72401  0.72491  0.72580  0.72669

  WITH EQUILIBRIUM REACTIONS

 Cp, KJ/(KG)(K)   22.3331  22.3487  22.3647  22.3810  22.3977  22.4147  22.4321  22.4499
 CONDUCTIVITY     23.1204  23.1471  23.1738  23.2008  23.2278  23.2550  23.2824  23.3099
 PRANDTL NUMBER    0.6959   0.6964   0.6970   0.6976   0.6981   0.6987   0.6993   0.6999

  WITH FROZEN REACTIONS

 Cp, KJ/(KG)(K)   20.6312  20.6317  20.6322  20.6326  20.6331  20.6336  20.6341  20.6346
 CONDUCTIVITY     22.3562  22.3856  22.4150  22.4443  22.4737  22.5030  22.5324  22.5617
 PRANDTL NUMBER    0.6648   0.6648   0.6648   0.6647   0.6647   0.6647   0.6647   0.6646

 MOLE FRACTIONS

 *e-              0.00050  0.00051  0.00052  0.00052  0.00053  0.00054  0.00055  0.00056
 *H               0.99828  0.99827  0.99826  0.99825  0.99824  0.99823  0.99822  0.99820
 *H+              0.00050  0.00051  0.00052  0.00052  0.00053  0.00054  0.00055  0.00056
 *H2              0.00072  0.00072  0.00071  0.00070  0.00069  0.00068  0.00068  0.00067

  * THERMODYNAMIC PROPERTIES FITTED TO 20000.K

 NOTE. WEIGHT FRACTION OF FUEL IN TOTAL FUELS AND OF OXIDANT IN TOTAL OXIDANTS









               THERMODYNAMIC EQUILIBRIUM PROPERTIES AT ASSIGNED

                           TEMPERATURE AND PRESSURE

 CASE =                

             REACTANT                    WT FRACTION      ENERGY      TEMP
                                          (SEE NOTE)     KJ/KG-MOL      K  
             H2                           1.0000000         0.000      0.000

 O/F=    0.00000  %FUEL=100.000000  R,EQ.RATIO= 0.000000  PHI,EQ.RATIO= 0.000000

 THERMODYNAMIC PROPERTIES

 P, BAR           0.67000  0.67000  0.67000  0.67000  0.67000  0.74000  0.74000  0.74000
 T, K             7000.00  7010.00  7020.00  7030.00  7040.00  6900.00  6910.00  6920.00
 RHO, KG/CU M    1.1604-3 1.1587-3 1.1571-3 1.1554-3 1.1537-3 1.3006-3 1.2987-3 1.2968-3
 H, KJ/KG        355008.7 355233.5 355458.4 355683.6 355908.9 352701.3 352924.2 353147.2
 U, KJ/KG        297270.6 297411.9 297553.3 297694.9 297836.7 295803.7 295943.2 296082.7
 G, KJ/KG       -921040.1-922863.2-924686.6-926510.3-928334.4-897172.6-898984.2-900796.1
 S, KJ/(KG)(K)   182.2927 182.3248 182.3568 182.3889 182.4209 181.1411 181.1734 181.2057

 M, (1/n)           1.008    1.008    1.008    1.008    1.008    1.008    1.008    1.008
 (dLV/dLP)t      -1.00095 -1.00095 -1.00094 -1.00094 -1.00094 -1.00105 -1.00104 -1.00104
 (dLV/dLT)p        1.0125   1.0125   1.0126   1.0126   1.0127   1.0124   1.0124   1.0124
 Cp, KJ/(KG)(K)   22.4681  22.4866  22.5054  22.5247  22.5443  22.2825  22.2958  22.3094
 GAMMAs            1.6010   1.6003   1.5996   1.5989   1.5982   1.6084   1.6079   1.6073
 SON VEL,M/SEC     9614.4   9619.3   9624.2   9629.1   9633.9   9566.3   9571.7   9577.1

 TRANSPORT PROPERTIES (GASES ONLY)
   CONDUCTIVITY IN UNITS OF MILLIWATTS/(CM)(K)

 VISC,MILLIPOISE  0.72758  0.72847  0.72936  0.73025  0.73113  0.71892  0.71982  0.72072

  WITH EQUILIBRIUM REACTIONS

 Cp, KJ/(KG)(K)   22.4681  22.4866  22.5054  22.5247  22.5443  22.2825  22.2958  22.3094
 CONDUCTIVITY     23.3376  23.3654  23.3933  23.4214  23.4496  23.1158  23.1412  23.1668
 PRANDTL NUMBER    0.7005   0.7011   0.7017   0.7023   0.7029   0.6930   0.6935   0.6940

  WITH FROZEN REACTIONS

 Cp, KJ/(KG)(K)   20.6350  20.6355  20.6360  20.6365  20.6370  20.6299  20.6303  20.6308
 CONDUCTIVITY     22.5910  22.6203  22.6496  22.6788  22.7081  22.3013  22.3307  22.3602
 PRANDTL NUMBER    0.6646   0.6646   0.6645   0.6645   0.6644   0.6650   0.6650   0.6650

 MOLE FRACTIONS

 *e-              0.00057  0.00058  0.00060  0.00061  0.00062  0.00046  0.00046  0.00047
 *H               0.99819  0.99818  0.99816  0.99815  0.99814  0.99827  0.99826  0.99825
 *H+              0.00057  0.00058  0.00059  0.00061  0.00062  0.00046  0.00046  0.00047
 *H2              0.00066  0.00065  0.00065  0.00064  0.00063  0.00082  0.00081  0.00080

  * THERMODYNAMIC PROPERTIES FITTED TO 20000.K

 NOTE. WEIGHT FRACTION OF FUEL IN TOTAL FUELS AND OF OXIDANT IN TOTAL OXIDANTS









               THERMODYNAMIC EQUILIBRIUM PROPERTIES AT ASSIGNED

                           TEMPERATURE AND PRESSURE

 CASE =                

             REACTANT                    WT FRACTION      ENERGY      TEMP
                                          (SEE NOTE)     KJ/KG-MOL      K  
             H2                           1.0000000         0.000      0.000

 O/F=    0.00000  %FUEL=100.000000  R,EQ.RATIO= 0.000000  PHI,EQ.RATIO= 0.000000

 THERMODYNAMIC PROPERTIES

 P, BAR           0.74000  0.74000  0.74000  0.74000  0.74000  0.74000  0.74000  0.74000
 T, K             6930.00  6940.00  6950.00  6960.00  6970.00  6980.00  6990.00  7000.00
 RHO, KG/CU M    1.2949-3 1.2930-3 1.2911-3 1.2892-3 1.2874-3 1.2855-3 1.2836-3 1.2818-3
 H, KJ/KG        353370.3 353593.7 353817.1 354040.7 354264.5 354488.4 354712.4 354936.7
 U, KJ/KG        296222.4 296362.2 296502.1 296642.2 296782.5 296922.9 297063.4 297204.2
 G, KJ/KG       -902608.3-904420.8-906233.7-908046.9-909860.4-911674.2-913488.3-915302.8
 S, KJ/(KG)(K)   181.2379 181.2701 181.3023 181.3344 181.3665 181.3986 181.4307 181.4628

 M, (1/n)           1.008    1.008    1.008    1.008    1.008    1.008    1.008    1.008
 (dLV/dLP)t      -1.00103 -1.00103 -1.00102 -1.00102 -1.00101 -1.00101 -1.00101 -1.00100
 (dLV/dLT)p        1.0125   1.0125   1.0125   1.0125   1.0126   1.0126   1.0126   1.0127
 Cp, KJ/(KG)(K)   22.3234  22.3378  22.3525  22.3676  22.3830  22.3988  22.4150  22.4315
 GAMMAs            1.6068   1.6062   1.6057   1.6051   1.6045   1.6039   1.6033   1.6027
 SON VEL,M/SEC     9582.5   9587.8   9593.1   9598.4   9603.6   9608.8   9613.9   9619.1

 TRANSPORT PROPERTIES (GASES ONLY)
   CONDUCTIVITY IN UNITS OF MILLIWATTS/(CM)(K)

 VISC,MILLIPOISE  0.72162  0.72252  0.72342  0.72431  0.72521  0.72610  0.72700  0.72789

  WITH EQUILIBRIUM REACTIONS

 Cp, KJ/(KG)(K)   22.3234  22.3378  22.3525  22.3676  22.3830  22.3988  22.4150  22.4315
 CONDUCTIVITY     23.1926  23.2185  23.2445  23.2708  23.2972  23.3237  23.3504  23.3773
 PRANDTL NUMBER    0.6946   0.6951   0.6957   0.6962   0.6968   0.6973   0.6979   0.6984

  WITH FROZEN REACTIONS

 Cp, KJ/(KG)(K)   20.6312  20.6317  20.6322  20.6326  20.6331  20.6336  20.6340  20.6345
 CONDUCTIVITY     22.3896  22.4190  22.4484  22.4778  22.5072  22.5365  22.5659  22.5953
 PRANDTL NUMBER    0.6649   0.6649   0.6649   0.6649   0.6648   0.6648   0.6648   0.6647

 MOLE FRACTIONS

 *e-              0.00048  0.00049  0.00050  0.00051  0.00052  0.00053  0.00054  0.00055
 *H               0.99825  0.99824  0.99823  0.99822  0.99821  0.99820  0.99819  0.99818
 *H+              0.00048  0.00049  0.00050  0.00051  0.00052  0.00053  0.00054  0.00055
 *H2              0.00079  0.00078  0.00077  0.00076  0.00075  0.00075  0.00074  0.00073

  * THERMODYNAMIC PROPERTIES FITTED TO 20000.K

 NOTE. WEIGHT FRACTION OF FUEL IN TOTAL FUELS AND OF OXIDANT IN TOTAL OXIDANTS









               THERMODYNAMIC EQUILIBRIUM PROPERTIES AT ASSIGNED

                           TEMPERATURE AND PRESSURE

 CASE =                

             REACTANT                    WT FRACTION      ENERGY      TEMP
                                          (SEE NOTE)     KJ/KG-MOL      K  
             H2                           1.0000000         0.000      0.000

 O/F=    0.00000  %FUEL=100.000000  R,EQ.RATIO= 0.000000  PHI,EQ.RATIO= 0.000000

 THERMODYNAMIC PROPERTIES

 P, BAR           0.74000  0.74000  0.74000  0.74000  0.82500  0.82500  0.82500  0.82500
 T, K             7010.00  7020.00  7030.00  7040.00  6900.00  6910.00  6920.00  6930.00
 RHO, KG/CU M    1.2799-3 1.2781-3 1.2762-3 1.2744-3 1.4501-3 1.4480-3 1.4459-3 1.4438-3
 H, KJ/KG        355161.1 355385.6 355610.4 355835.3 352623.2 352845.9 353068.8 353291.8
 U, KJ/KG        297345.0 297486.1 297627.3 297768.7 295732.4 295871.6 296010.9 296150.4
 G, KJ/KG       -917117.6-918932.7-920748.1-922563.9-890986.3-892788.8-894591.6-896394.8
 S, KJ/(KG)(K)   181.4948 181.5268 181.5588 181.5908 180.2333 180.2655 180.2977 180.3299

 M, (1/n)           1.008    1.008    1.008    1.008    1.008    1.008    1.008    1.008
 (dLV/dLP)t      -1.00100 -1.00100 -1.00099 -1.00099 -1.00113 -1.00112 -1.00111 -1.00111
 (dLV/dLT)p        1.0127   1.0127   1.0128   1.0128   1.0129   1.0129   1.0129   1.0129
 Cp, KJ/(KG)(K)   22.4484  22.4656  22.4832  22.5012  22.2684  22.2800  22.2919  22.3041
 GAMMAs            1.6020   1.6014   1.6008   1.6001   1.6096   1.6091   1.6086   1.6081
 SON VEL,M/SEC     9624.1   9629.2   9634.2   9639.2   9569.2   9574.8   9580.3   9585.9

 TRANSPORT PROPERTIES (GASES ONLY)
   CONDUCTIVITY IN UNITS OF MILLIWATTS/(CM)(K)

 VISC,MILLIPOISE  0.72878  0.72968  0.73057  0.73146  0.71924  0.72014  0.72104  0.72194

  WITH EQUILIBRIUM REACTIONS

 Cp, KJ/(KG)(K)   22.4484  22.4656  22.4832  22.5012  22.2684  22.2800  22.2919  22.3041
 CONDUCTIVITY     23.4043  23.4314  23.4587  23.4861  23.1758  23.2002  23.2247  23.2494
 PRANDTL NUMBER    0.6990   0.6996   0.7002   0.7008   0.6911   0.6916   0.6921   0.6926

  WITH FROZEN REACTIONS

 Cp, KJ/(KG)(K)   20.6350  20.6355  20.6359  20.6364  20.6294  20.6299  20.6303  20.6308
 CONDUCTIVITY     22.6246  22.6539  22.6832  22.7126  22.3056  22.3351  22.3646  22.3940
 PRANDTL NUMBER    0.6647   0.6647   0.6646   0.6646   0.6652   0.6652   0.6651   0.6651

 MOLE FRACTIONS

 *e-              0.00056  0.00057  0.00058  0.00059  0.00043  0.00044  0.00045  0.00046
 *H               0.99817  0.99815  0.99814  0.99813  0.99822  0.99822  0.99821  0.99821
 *H+              0.00056  0.00057  0.00058  0.00059  0.00043  0.00044  0.00045  0.00046
 *H2              0.00072  0.00071  0.00070  0.00070  0.00091  0.00090  0.00089  0.00088

  * THERMODYNAMIC PROPERTIES FITTED TO 20000.K

 NOTE. WEIGHT FRACTION OF FUEL IN TOTAL FUELS AND OF OXIDANT IN TOTAL OXIDANTS









               THERMODYNAMIC EQUILIBRIUM PROPERTIES AT ASSIGNED

                           TEMPERATURE AND PRESSURE

 CASE =                

             REACTANT                    WT FRACTION      ENERGY      TEMP
                                          (SEE NOTE)     KJ/KG-MOL      K  
             H2                           1.0000000         0.000      0.000

 O/F=    0.00000  %FUEL=100.000000  R,EQ.RATIO= 0.000000  PHI,EQ.RATIO= 0.000000

 THERMODYNAMIC PROPERTIES

 P, BAR           0.82500  0.82500  0.82500  0.82500  0.82500  0.82500  0.82500  0.82500
 T, K             6940.00  6950.00  6960.00  6970.00  6980.00  6990.00  7000.00  7010.00
 RHO, KG/CU M    1.4417-3 1.4396-3 1.4375-3 1.4354-3 1.4333-3 1.4312-3 1.4292-3 1.4271-3
 H, KJ/KG        353514.9 353738.1 353961.4 354184.9 354408.6 354632.4 354856.3 355080.4
 U, KJ/KG        296290.0 296429.7 296569.6 296709.5 296849.6 296989.9 297130.3 297270.8
 G, KJ/KG       -898198.2-900002.0-901806.1-903610.5-905415.3-907220.3-909025.7-910831.4
 S, KJ/(KG)(K)   180.3621 180.3943 180.4264 180.4585 180.4905 180.5226 180.5546 180.5866

 M, (1/n)           1.008    1.008    1.008    1.008    1.008    1.008    1.008    1.008
 (dLV/dLP)t      -1.00110 -1.00110 -1.00109 -1.00109 -1.00108 -1.00108 -1.00107 -1.00107
 (dLV/dLT)p        1.0129   1.0129   1.0129   1.0129   1.0129   1.0129   1.0130   1.0130
 Cp, KJ/(KG)(K)   22.3167  22.3297  22.3430  22.3566  22.3707  22.3851  22.3998  22.4149
 GAMMAs            1.6076   1.6071   1.6065   1.6060   1.6055   1.6049   1.6043   1.6038
 SON VEL,M/SEC     9591.4   9596.8   9602.2   9607.6   9612.9   9618.3   9623.5   9628.8

 TRANSPORT PROPERTIES (GASES ONLY)
   CONDUCTIVITY IN UNITS OF MILLIWATTS/(CM)(K)

 VISC,MILLIPOISE  0.72285  0.72375  0.72464  0.72554  0.72644  0.72734  0.72823  0.72913

  WITH EQUILIBRIUM REACTIONS

 Cp, KJ/(KG)(K)   22.3167  22.3297  22.3430  22.3566  22.3707  22.3851  22.3998  22.4149
 CONDUCTIVITY     23.2743  23.2994  23.3246  23.3501  23.3756  23.4014  23.4273  23.4533
 PRANDTL NUMBER    0.6931   0.6936   0.6941   0.6947   0.6952   0.6958   0.6963   0.6968

  WITH FROZEN REACTIONS

 Cp, KJ/(KG)(K)   20.6312  20.6317  20.6321  20.6326  20.6331  20.6335  20.6340  20.6344
 CONDUCTIVITY     22.4235  22.4529  22.4823  22.5117  22.5412  22.5706  22.6000  22.6293
 PRANDTL NUMBER    0.6651   0.6650   0.6650   0.6650   0.6649   0.6649   0.6649   0.6649

 MOLE FRACTIONS

 *e-              0.00046  0.00047  0.00048  0.00049  0.00050  0.00051  0.00052  0.00053
 *H               0.99820  0.99819  0.99819  0.99818  0.99817  0.99816  0.99815  0.99814
 *H+              0.00046  0.00047  0.00048  0.00049  0.00050  0.00051  0.00052  0.00053
 *H2              0.00087  0.00086  0.00085  0.00084  0.00083  0.00082  0.00081  0.00080

  * THERMODYNAMIC PROPERTIES FITTED TO 20000.K

 NOTE. WEIGHT FRACTION OF FUEL IN TOTAL FUELS AND OF OXIDANT IN TOTAL OXIDANTS









               THERMODYNAMIC EQUILIBRIUM PROPERTIES AT ASSIGNED

                           TEMPERATURE AND PRESSURE

 CASE =                

             REACTANT                    WT FRACTION      ENERGY      TEMP
                                          (SEE NOTE)     KJ/KG-MOL      K  
             H2                           1.0000000         0.000      0.000

 O/F=    0.00000  %FUEL=100.000000  R,EQ.RATIO= 0.000000  PHI,EQ.RATIO= 0.000000

 THERMODYNAMIC PROPERTIES

 P, BAR           0.82500  0.82500  0.82500  0.91000  0.91000  0.91000  0.91000  0.91000
 T, K             7020.00  7030.00  7040.00  6900.00  6910.00  6920.00  6930.00  6940.00
 RHO, KG/CU M    1.4250-3 1.4230-3 1.4209-3 1.5997-3 1.5974-3 1.5951-3 1.5927-3 1.5904-3
 H, KJ/KG        355304.6 355529.0 355753.5 352550.1 352772.8 352995.6 353218.5 353441.5
 U, KJ/KG        297411.5 297552.3 297693.3 295665.8 295805.0 295944.2 296083.6 296223.0
 G, KJ/KG       -912637.4-914443.8-916250.5-885407.8-887202.1-888996.8-890791.7-892587.0
 S, KJ/(KG)(K)   180.6185 180.6505 180.6824 179.4142 179.4464 179.4787 179.5108 179.5430

 M, (1/n)           1.008    1.008    1.008    1.009    1.009    1.009    1.008    1.008
 (dLV/dLP)t      -1.00106 -1.00106 -1.00105 -1.00121 -1.00120 -1.00120 -1.00119 -1.00118
 (dLV/dLT)p        1.0130   1.0131   1.0131   1.0134   1.0133   1.0133   1.0133   1.0133
 Cp, KJ/(KG)(K)   22.4304  22.4462  22.4624  22.2636  22.2735  22.2838  22.2944  22.3054
 GAMMAs            1.6032   1.6026   1.6020   1.6104   1.6100   1.6095   1.6091   1.6086
 SON VEL,M/SEC     9634.0   9639.1   9644.2   9571.2   9576.9   9582.6   9588.3   9593.9

 TRANSPORT PROPERTIES (GASES ONLY)
   CONDUCTIVITY IN UNITS OF MILLIWATTS/(CM)(K)

 VISC,MILLIPOISE  0.73002  0.73092  0.73181  0.71953  0.72043  0.72134  0.72224  0.72314

  WITH EQUILIBRIUM REACTIONS

 Cp, KJ/(KG)(K)   22.4304  22.4462  22.4624  22.2636  22.2735  22.2838  22.2944  22.3054
 CONDUCTIVITY     23.4795  23.5059  23.5324  23.2372  23.2605  23.2840  23.3077  23.3316
 PRANDTL NUMBER    0.6974   0.6980   0.6985   0.6894   0.6899   0.6904   0.6908   0.6913

  WITH FROZEN REACTIONS

 Cp, KJ/(KG)(K)   20.6349  20.6354  20.6358  20.6291  20.6295  20.6300  20.6304  20.6308
 CONDUCTIVITY     22.6587  22.6881  22.7174  22.3097  22.3392  22.3686  22.3981  22.4276
 PRANDTL NUMBER    0.6648   0.6648   0.6648   0.6653   0.6653   0.6653   0.6652   0.6652

 MOLE FRACTIONS

 *e-              0.00054  0.00055  0.00056  0.00041  0.00042  0.00043  0.00043  0.00044
 *H               0.99813  0.99812  0.99811  0.99817  0.99817  0.99816  0.99816  0.99815
 *H+              0.00054  0.00055  0.00056  0.00041  0.00042  0.00043  0.00043  0.00044
 *H2              0.00079  0.00079  0.00078  0.00101  0.00099  0.00098  0.00097  0.00096

  * THERMODYNAMIC PROPERTIES FITTED TO 20000.K

 NOTE. WEIGHT FRACTION OF FUEL IN TOTAL FUELS AND OF OXIDANT IN TOTAL OXIDANTS









               THERMODYNAMIC EQUILIBRIUM PROPERTIES AT ASSIGNED

                           TEMPERATURE AND PRESSURE

 CASE =                

             REACTANT                    WT FRACTION      ENERGY      TEMP
                                          (SEE NOTE)     KJ/KG-MOL      K  
             H2                           1.0000000         0.000      0.000

 O/F=    0.00000  %FUEL=100.000000  R,EQ.RATIO= 0.000000  PHI,EQ.RATIO= 0.000000

 THERMODYNAMIC PROPERTIES

 P, BAR           0.91000  0.91000  0.91000  0.91000  0.91000  0.91000  0.91000  0.91000
 T, K             6950.00  6960.00  6970.00  6980.00  6990.00  7000.00  7010.00  7020.00
 RHO, KG/CU M    1.5881-3 1.5858-3 1.5835-3 1.5812-3 1.5789-3 1.5766-3 1.5743-3 1.5720-3
 H, KJ/KG        353664.6 353887.8 354111.1 354334.6 354558.2 354781.9 355005.8 355229.8
 U, KJ/KG        296362.6 296502.3 296642.1 296782.0 296922.0 297062.2 297202.5 297342.9
 G, KJ/KG       -894382.6-896178.5-897974.7-899771.3-901568.1-903365.3-905162.9-906960.7
 S, KJ/(KG)(K)   179.5751 179.6072 179.6393 179.6713 179.7033 179.7353 179.7673 179.7992

 M, (1/n)           1.008    1.008    1.008    1.008    1.008    1.008    1.008    1.008
 (dLV/dLP)t      -1.00117 -1.00117 -1.00116 -1.00115 -1.00115 -1.00114 -1.00114 -1.00113
 (dLV/dLT)p        1.0133   1.0133   1.0133   1.0133   1.0133   1.0133   1.0133   1.0133
 Cp, KJ/(KG)(K)   22.3168  22.3285  22.3406  22.3530  22.3658  22.3789  22.3924  22.4062
 GAMMAs            1.6081   1.6077   1.6072   1.6067   1.6062   1.6056   1.6051   1.6046
 SON VEL,M/SEC     9599.5   9605.0   9610.6   9616.0   9621.5   9626.9   9632.3   9637.6

 TRANSPORT PROPERTIES (GASES ONLY)
   CONDUCTIVITY IN UNITS OF MILLIWATTS/(CM)(K)

 VISC,MILLIPOISE  0.72405  0.72495  0.72585  0.72675  0.72765  0.72855  0.72944  0.73034

  WITH EQUILIBRIUM REACTIONS

 Cp, KJ/(KG)(K)   22.3168  22.3285  22.3406  22.3530  22.3658  22.3789  22.3924  22.4062
 CONDUCTIVITY     23.3557  23.3800  23.4044  23.4290  23.4538  23.4788  23.5040  23.5293
 PRANDTL NUMBER    0.6918   0.6923   0.6929   0.6934   0.6939   0.6944   0.6949   0.6955

  WITH FROZEN REACTIONS

 Cp, KJ/(KG)(K)   20.6313  20.6317  20.6322  20.6326  20.6331  20.6335  20.6340  20.6344
 CONDUCTIVITY     22.4570  22.4865  22.5159  22.5454  22.5748  22.6042  22.6337  22.6631
 PRANDTL NUMBER    0.6652   0.6652   0.6651   0.6651   0.6651   0.6650   0.6650   0.6650

 MOLE FRACTIONS

 *e-              0.00045  0.00046  0.00047  0.00048  0.00048  0.00049  0.00050  0.00051
 *H               0.99815  0.99814  0.99814  0.99813  0.99812  0.99812  0.99811  0.99810
 *H+              0.00045  0.00046  0.00047  0.00048  0.00048  0.00049  0.00050  0.00051
 *H2              0.00095  0.00094  0.00093  0.00092  0.00091  0.00090  0.00089  0.00088

  * THERMODYNAMIC PROPERTIES FITTED TO 20000.K

 NOTE. WEIGHT FRACTION OF FUEL IN TOTAL FUELS AND OF OXIDANT IN TOTAL OXIDANTS









               THERMODYNAMIC EQUILIBRIUM PROPERTIES AT ASSIGNED

                           TEMPERATURE AND PRESSURE

 CASE =                

             REACTANT                    WT FRACTION      ENERGY      TEMP
                                          (SEE NOTE)     KJ/KG-MOL      K  
             H2                           1.0000000         0.000      0.000

 O/F=    0.00000  %FUEL=100.000000  R,EQ.RATIO= 0.000000  PHI,EQ.RATIO= 0.000000

 THERMODYNAMIC PROPERTIES

 P, BAR           0.91000  0.91000   1.0000   1.0000   1.0000   1.0000   1.0000   1.0000
 T, K             7030.00  7040.00  6900.00  6910.00  6920.00  6930.00  6940.00  6950.00
 RHO, KG/CU M    1.5698-3 1.5675-3 1.7582-3 1.7556-3 1.7530-3 1.7504-3 1.7479-3 1.7453-3
 H, KJ/KG        355453.9 355678.2 352477.0 352699.7 352922.5 353145.4 353368.4 353591.4
 U, KJ/KG        297483.5 297624.2 295599.5 295738.6 295877.8 296017.1 296156.5 296296.0
 G, KJ/KG       -908758.8-910557.3-880043.4-881829.8-883616.5-885403.6-887191.0-888978.7
 S, KJ/(KG)(K)   179.8311 179.8630 178.6261 178.6584 178.6906 178.7228 178.7549 178.7871

 M, (1/n)           1.008    1.008    1.009    1.009    1.009    1.009    1.009    1.009
 (dLV/dLP)t      -1.00113 -1.00112 -1.00130 -1.00129 -1.00128 -1.00127 -1.00126 -1.00126
 (dLV/dLT)p        1.0134   1.0134   1.0139   1.0139   1.0139   1.0138   1.0138   1.0138
 Cp, KJ/(KG)(K)   22.4205  22.4350  22.2663  22.2746  22.2833  22.2924  22.3018  22.3116
 GAMMAs            1.6040   1.6035   1.6110   1.6106   1.6102   1.6098   1.6094   1.6090
 SON VEL,M/SEC     9642.9   9648.2   9572.4   9578.3   9584.2   9590.0   9595.7   9601.5

 TRANSPORT PROPERTIES (GASES ONLY)
   CONDUCTIVITY IN UNITS OF MILLIWATTS/(CM)(K)

 VISC,MILLIPOISE  0.73124  0.73213  0.71982  0.72072  0.72163  0.72253  0.72344  0.72434

  WITH EQUILIBRIUM REACTIONS

 Cp, KJ/(KG)(K)   22.4205  22.4350  22.2663  22.2746  22.2833  22.2924  22.3018  22.3116
 CONDUCTIVITY     23.5548  23.5804  23.3033  23.3255  23.3480  23.3706  23.3935  23.4165
 PRANDTL NUMBER    0.6960   0.6966   0.6878   0.6883   0.6887   0.6892   0.6897   0.6902

  WITH FROZEN REACTIONS

 Cp, KJ/(KG)(K)   20.6349  20.6353  20.6288  20.6292  20.6296  20.6300  20.6305  20.6309
 CONDUCTIVITY     22.6925  22.7219  22.3137  22.3432  22.3727  22.4022  22.4317  22.4612
 PRANDTL NUMBER    0.6649   0.6649   0.6655   0.6654   0.6654   0.6654   0.6653   0.6653

 MOLE FRACTIONS

 *e-              0.00052  0.00053  0.00039  0.00040  0.00041  0.00041  0.00042  0.00043
 *H               0.99809  0.99808  0.99811  0.99811  0.99811  0.99810  0.99810  0.99810
 *H+              0.00052  0.00053  0.00039  0.00040  0.00041  0.00041  0.00042  0.00043
 *H2              0.00087  0.00086  0.00111  0.00109  0.00108  0.00107  0.00106  0.00104

  * THERMODYNAMIC PROPERTIES FITTED TO 20000.K

 NOTE. WEIGHT FRACTION OF FUEL IN TOTAL FUELS AND OF OXIDANT IN TOTAL OXIDANTS









               THERMODYNAMIC EQUILIBRIUM PROPERTIES AT ASSIGNED

                           TEMPERATURE AND PRESSURE

 CASE =                

             REACTANT                    WT FRACTION      ENERGY      TEMP
                                          (SEE NOTE)     KJ/KG-MOL      K  
             H2                           1.0000000         0.000      0.000

 O/F=    0.00000  %FUEL=100.000000  R,EQ.RATIO= 0.000000  PHI,EQ.RATIO= 0.000000

 THERMODYNAMIC PROPERTIES

 P, BAR            1.0000   1.0000   1.0000   1.0000   1.0000   1.0000   1.0000   1.0000
 T, K             6960.00  6970.00  6980.00  6990.00  7000.00  7010.00  7020.00  7030.00
 RHO, KG/CU M    1.7428-3 1.7403-3 1.7377-3 1.7352-3 1.7327-3 1.7302-3 1.7277-3 1.7252-3
 H, KJ/KG        353814.6 354037.9 354261.2 354484.7 354708.3 354932.0 355155.9 355379.8
 U, KJ/KG        296435.6 296575.3 296715.1 296855.0 296995.0 297135.1 297275.4 297415.8
 G, KJ/KG       -890766.7-892555.1-894343.7-896132.7-897922.0-899711.7-901501.6-903291.9
 S, KJ/(KG)(K)   178.8192 178.8512 178.8832 178.9152 178.9472 178.9791 179.0110 179.0429

 M, (1/n)           1.009    1.009    1.008    1.008    1.008    1.008    1.008    1.008
 (dLV/dLP)t      -1.00125 -1.00124 -1.00123 -1.00123 -1.00122 -1.00121 -1.00121 -1.00120
 (dLV/dLT)p        1.0138   1.0138   1.0138   1.0137   1.0137   1.0137   1.0137   1.0137
 Cp, KJ/(KG)(K)   22.3218  22.3323  22.3431  22.3544  22.3659  22.3779  22.3901  22.4028
 GAMMAs            1.6086   1.6081   1.6077   1.6072   1.6067   1.6062   1.6057   1.6052
 SON VEL,M/SEC     9607.2   9612.8   9618.4   9624.0   9629.6   9635.1   9640.6   9646.0

 TRANSPORT PROPERTIES (GASES ONLY)
   CONDUCTIVITY IN UNITS OF MILLIWATTS/(CM)(K)

 VISC,MILLIPOISE  0.72524  0.72615  0.72705  0.72795  0.72885  0.72975  0.73065  0.73155

  WITH EQUILIBRIUM REACTIONS

 Cp, KJ/(KG)(K)   22.3218  22.3323  22.3431  22.3544  22.3659  22.3779  22.3901  22.4028
 CONDUCTIVITY     23.4398  23.4632  23.4869  23.5107  23.5347  23.5589  23.5833  23.6078
 PRANDTL NUMBER    0.6907   0.6911   0.6916   0.6921   0.6927   0.6932   0.6937   0.6942

  WITH FROZEN REACTIONS

 Cp, KJ/(KG)(K)   20.6313  20.6318  20.6322  20.6327  20.6331  20.6335  20.6340  20.6344
 CONDUCTIVITY     22.4906  22.5201  22.5496  22.5790  22.6085  22.6379  22.6673  22.6968
 PRANDTL NUMBER    0.6653   0.6653   0.6652   0.6652   0.6652   0.6651   0.6651   0.6651

 MOLE FRACTIONS

 *e-              0.00044  0.00045  0.00045  0.00046  0.00047  0.00048  0.00049  0.00050
 *H               0.99809  0.99809  0.99808  0.99808  0.99807  0.99807  0.99806  0.99806
 *H+              0.00044  0.00045  0.00045  0.00046  0.00047  0.00048  0.00049  0.00050
 *H2              0.00103  0.00102  0.00101  0.00100  0.00099  0.00097  0.00096  0.00095

  * THERMODYNAMIC PROPERTIES FITTED TO 20000.K

 NOTE. WEIGHT FRACTION OF FUEL IN TOTAL FUELS AND OF OXIDANT IN TOTAL OXIDANTS









               THERMODYNAMIC EQUILIBRIUM PROPERTIES AT ASSIGNED

                           TEMPERATURE AND PRESSURE

 CASE =                

             REACTANT                    WT FRACTION      ENERGY      TEMP
                                          (SEE NOTE)     KJ/KG-MOL      K  
             H2                           1.0000000         0.000      0.000

 O/F=    0.00000  %FUEL=100.000000  R,EQ.RATIO= 0.000000  PHI,EQ.RATIO= 0.000000

 THERMODYNAMIC PROPERTIES

 P, BAR            1.0000   1.1000   1.1000   1.1000   1.1000   1.1000   1.1000   1.1000
 T, K             7040.00  6900.00  6910.00  6920.00  6930.00  6940.00  6950.00  6960.00
 RHO, KG/CU M    1.7227-3 1.9342-3 1.9314-3 1.9286-3 1.9257-3 1.9229-3 1.9201-3 1.9173-3
 H, KJ/KG        355603.9 352399.9 352622.7 352845.5 353068.5 353291.5 353514.6 353737.8
 U, KJ/KG        297556.3 295529.6 295668.8 295808.0 295947.4 296086.8 296226.3 296365.8
 G, KJ/KG       -905082.5-874622.7-876401.1-878179.9-879959.0-881738.4-883518.2-885298.3
 S, KJ/(KG)(K)   179.0748 177.8294 177.8616 177.8939 177.9260 177.9582 177.9903 178.0224

 M, (1/n)           1.008    1.009    1.009    1.009    1.009    1.009    1.009    1.009
 (dLV/dLP)t      -1.00119 -1.00140 -1.00139 -1.00138 -1.00137 -1.00136 -1.00135 -1.00134
 (dLV/dLT)p        1.0138   1.0146   1.0145   1.0145   1.0144   1.0144   1.0144   1.0143
 Cp, KJ/(KG)(K)   22.4158  22.2766  22.2833  22.2904  22.2979  22.3057  22.3139  22.3224
 GAMMAs            1.6047   1.6115   1.6111   1.6108   1.6104   1.6100   1.6097   1.6093
 SON VEL,M/SEC     9651.4   9573.1   9579.1   9585.1   9591.1   9597.0   9602.8   9608.7

 TRANSPORT PROPERTIES (GASES ONLY)
   CONDUCTIVITY IN UNITS OF MILLIWATTS/(CM)(K)

 VISC,MILLIPOISE  0.73244  0.72012  0.72102  0.72193  0.72284  0.72374  0.72465  0.72555

  WITH EQUILIBRIUM REACTIONS

 Cp, KJ/(KG)(K)   22.4158  22.2766  22.2833  22.2904  22.2979  22.3057  22.3139  22.3224
 CONDUCTIVITY     23.6326  23.3777  23.3988  23.4201  23.4416  23.4633  23.4853  23.5074
 PRANDTL NUMBER    0.6947   0.6862   0.6867   0.6871   0.6876   0.6880   0.6885   0.6890

  WITH FROZEN REACTIONS

 Cp, KJ/(KG)(K)   20.6349  20.6285  20.6289  20.6293  20.6297  20.6301  20.6306  20.6310
 CONDUCTIVITY     22.7262  22.3180  22.3475  22.3770  22.4065  22.4360  22.4655  22.4949
 PRANDTL NUMBER    0.6650   0.6656   0.6656   0.6655   0.6655   0.6655   0.6655   0.6654

 MOLE FRACTIONS

 *e-              0.00050  0.00037  0.00038  0.00039  0.00039  0.00040  0.00041  0.00042
 *H               0.99805  0.99804  0.99804  0.99804  0.99803  0.99803  0.99803  0.99803
 *H+              0.00050  0.00037  0.00038  0.00039  0.00039  0.00040  0.00041  0.00042
 *H2              0.00094  0.00122  0.00120  0.00119  0.00117  0.00116  0.00115  0.00113

  * THERMODYNAMIC PROPERTIES FITTED TO 20000.K

 NOTE. WEIGHT FRACTION OF FUEL IN TOTAL FUELS AND OF OXIDANT IN TOTAL OXIDANTS









               THERMODYNAMIC EQUILIBRIUM PROPERTIES AT ASSIGNED

                           TEMPERATURE AND PRESSURE

 CASE =                

             REACTANT                    WT FRACTION      ENERGY      TEMP
                                          (SEE NOTE)     KJ/KG-MOL      K  
             H2                           1.0000000         0.000      0.000

 O/F=    0.00000  %FUEL=100.000000  R,EQ.RATIO= 0.000000  PHI,EQ.RATIO= 0.000000

 THERMODYNAMIC PROPERTIES

 P, BAR            1.1000   1.1000   1.1000   1.1000   1.1000   1.1000   1.1000   1.1000
 T, K             6970.00  6980.00  6990.00  7000.00  7010.00  7020.00  7030.00  7040.00
 RHO, KG/CU M    1.9145-3 1.9117-3 1.9090-3 1.9062-3 1.9034-3 1.9007-3 1.8980-3 1.8952-3
 H, KJ/KG        353961.0 354184.4 354407.8 354631.4 354855.0 355078.8 355302.7 355526.7
 U, KJ/KG        296505.5 296645.2 296785.1 296925.0 297065.0 297205.2 297345.4 297485.8
 G, KJ/KG       -887078.6-888859.3-890640.4-892421.7-894203.4-895985.4-897767.7-899550.3
 S, KJ/(KG)(K)   178.0545 178.0865 178.1185 178.1504 178.1824 178.2143 178.2461 178.2780

 M, (1/n)           1.009    1.009    1.009    1.009    1.009    1.009    1.009    1.008
 (dLV/dLP)t      -1.00133 -1.00132 -1.00131 -1.00131 -1.00130 -1.00129 -1.00128 -1.00127
 (dLV/dLT)p        1.0143   1.0143   1.0143   1.0142   1.0142   1.0142   1.0142   1.0142
 Cp, KJ/(KG)(K)   22.3313  22.3406  22.3502  22.3602  22.3705  22.3812  22.3922  22.4036
 GAMMAs            1.6089   1.6085   1.6080   1.6076   1.6072   1.6067   1.6062   1.6058
 SON VEL,M/SEC     9614.5   9620.2   9626.0   9631.7   9637.3   9642.9   9648.5   9654.0

 TRANSPORT PROPERTIES (GASES ONLY)
   CONDUCTIVITY IN UNITS OF MILLIWATTS/(CM)(K)

 VISC,MILLIPOISE  0.72645  0.72736  0.72826  0.72916  0.73006  0.73096  0.73186  0.73276

  WITH EQUILIBRIUM REACTIONS

 Cp, KJ/(KG)(K)   22.3313  22.3406  22.3502  22.3602  22.3705  22.3812  22.3922  22.4036
 CONDUCTIVITY     23.5298  23.5523  23.5751  23.5981  23.6212  23.6446  23.6681  23.6919
 PRANDTL NUMBER    0.6895   0.6899   0.6904   0.6909   0.6914   0.6919   0.6924   0.6929

  WITH FROZEN REACTIONS

 Cp, KJ/(KG)(K)   20.6314  20.6319  20.6323  20.6327  20.6331  20.6336  20.6340  20.6345
 CONDUCTIVITY     22.5244  22.5539  22.5834  22.6129  22.6423  22.6718  22.7012  22.7307
 PRANDTL NUMBER    0.6654   0.6654   0.6653   0.6653   0.6653   0.6653   0.6652   0.6652

 MOLE FRACTIONS

 *e-              0.00042  0.00043  0.00044  0.00045  0.00046  0.00046  0.00047  0.00048
 *H               0.99803  0.99803  0.99802  0.99802  0.99802  0.99801  0.99801  0.99800
 *H+              0.00042  0.00043  0.00044  0.00045  0.00046  0.00046  0.00047  0.00048
 *H2              0.00112  0.00111  0.00110  0.00108  0.00107  0.00106  0.00105  0.00104

  * THERMODYNAMIC PROPERTIES FITTED TO 20000.K

 NOTE. WEIGHT FRACTION OF FUEL IN TOTAL FUELS AND OF OXIDANT IN TOTAL OXIDANTS









               THERMODYNAMIC EQUILIBRIUM PROPERTIES AT ASSIGNED

                           TEMPERATURE AND PRESSURE

 CASE =                

             REACTANT                    WT FRACTION      ENERGY      TEMP
                                          (SEE NOTE)     KJ/KG-MOL      K  
             H2                           1.0000000         0.000      0.000

 O/F=    0.00000  %FUEL=100.000000  R,EQ.RATIO= 0.000000  PHI,EQ.RATIO= 0.000000

 THERMODYNAMIC PROPERTIES

 P, BAR            1.2000   1.2000   1.2000   1.2000   1.2000   1.2000   1.2000   1.2000
 T, K             6900.00  6910.00  6920.00  6930.00  6940.00  6950.00  6960.00  6970.00
 RHO, KG/CU M    2.1103-3 2.1072-3 2.1041-3 2.1011-3 2.0980-3 2.0949-3 2.0919-3 2.0888-3
 H, KJ/KG        352326.1 352549.1 352772.1 352995.1 353218.3 353441.5 353664.7 353888.1
 U, KJ/KG        295463.0 295602.3 295741.7 295881.1 296020.6 296160.1 296299.7 296439.4
 G, KJ/KG       -869674.6-871445.8-873217.3-874989.1-876761.3-878533.7-880306.5-882079.6
 S, KJ/(KG)(K)   177.1016 177.1338 177.1661 177.1983 177.2305 177.2626 177.2947 177.3268

 M, (1/n)           1.009    1.009    1.009    1.009    1.009    1.009    1.009    1.009
 (dLV/dLP)t      -1.00150 -1.00149 -1.00148 -1.00147 -1.00146 -1.00144 -1.00143 -1.00142
 (dLV/dLT)p        1.0153   1.0152   1.0151   1.0151   1.0150   1.0150   1.0149   1.0149
 Cp, KJ/(KG)(K)   22.2931  22.2983  22.3039  22.3099  22.3162  22.3228  22.3299  22.3373
 GAMMAs            1.6117   1.6114   1.6111   1.6108   1.6104   1.6101   1.6097   1.6094
 SON VEL,M/SEC     9573.1   9579.3   9585.4   9591.5   9597.5   9603.5   9609.5   9615.4

 TRANSPORT PROPERTIES (GASES ONLY)
   CONDUCTIVITY IN UNITS OF MILLIWATTS/(CM)(K)

 VISC,MILLIPOISE  0.72040  0.72131  0.72221  0.72312  0.72403  0.72493  0.72584  0.72674

  WITH EQUILIBRIUM REACTIONS

 Cp, KJ/(KG)(K)   22.2931  22.2983  22.3039  22.3099  22.3162  22.3228  22.3299  22.3373
 CONDUCTIVITY     23.4531  23.4730  23.4931  23.5135  23.5341  23.5550  23.5760  23.5973
 PRANDTL NUMBER    0.6848   0.6852   0.6857   0.6861   0.6866   0.6870   0.6875   0.6879

  WITH FROZEN REACTIONS

 Cp, KJ/(KG)(K)   20.6282  20.6286  20.6290  20.6294  20.6299  20.6303  20.6307  20.6311
 CONDUCTIVITY     22.3221  22.3516  22.3811  22.4106  22.4401  22.4696  22.4990  22.5285
 PRANDTL NUMBER    0.6657   0.6657   0.6657   0.6656   0.6656   0.6656   0.6656   0.6655

 MOLE FRACTIONS

 *e-              0.00036  0.00036  0.00037  0.00038  0.00039  0.00039  0.00040  0.00041
 *H               0.99796  0.99796  0.99796  0.99796  0.99796  0.99796  0.99796  0.99796
 *H+              0.00036  0.00036  0.00037  0.00038  0.00038  0.00039  0.00040  0.00041
 *H2              0.00133  0.00131  0.00130  0.00128  0.00127  0.00125  0.00124  0.00122

  * THERMODYNAMIC PROPERTIES FITTED TO 20000.K

 NOTE. WEIGHT FRACTION OF FUEL IN TOTAL FUELS AND OF OXIDANT IN TOTAL OXIDANTS









               THERMODYNAMIC EQUILIBRIUM PROPERTIES AT ASSIGNED

                           TEMPERATURE AND PRESSURE

 CASE =                

             REACTANT                    WT FRACTION      ENERGY      TEMP
                                          (SEE NOTE)     KJ/KG-MOL      K  
             H2                           1.0000000         0.000      0.000

 O/F=    0.00000  %FUEL=100.000000  R,EQ.RATIO= 0.000000  PHI,EQ.RATIO= 0.000000

 THERMODYNAMIC PROPERTIES

 P, BAR            1.2000   1.2000   1.2000   1.2000   1.2000   1.2000   1.2000   1.3200
 T, K             6980.00  6990.00  7000.00  7010.00  7020.00  7030.00  7040.00  6900.00
 RHO, KG/CU M    2.0858-3 2.0828-3 2.0797-3 2.0767-3 2.0737-3 2.0707-3 2.0677-3 2.3217-3
 H, KJ/KG        354111.5 354335.0 354558.5 354782.2 355006.0 355229.8 355453.7 352241.2
 U, KJ/KG        296579.2 296719.0 296858.9 296998.9 297139.0 297279.2 297419.5 295386.6
 G, KJ/KG       -883853.1-885626.8-887400.9-889175.3-890950.0-892725.0-894500.4-864255.4
 S, KJ/(KG)(K)   177.3588 177.3908 177.4228 177.4547 177.4866 177.5185 177.5503 176.3039

 M, (1/n)           1.009    1.009    1.009    1.009    1.009    1.009    1.009    1.009
 (dLV/dLP)t      -1.00141 -1.00140 -1.00139 -1.00138 -1.00138 -1.00137 -1.00136 -1.00163
 (dLV/dLT)p        1.0149   1.0148   1.0148   1.0148   1.0147   1.0147   1.0147   1.0161
 Cp, KJ/(KG)(K)   22.3450  22.3532  22.3616  22.3705  22.3797  22.3892  22.3992  22.3194
 GAMMAs            1.6090   1.6086   1.6082   1.6078   1.6074   1.6070   1.6066   1.6117
 SON VEL,M/SEC     9621.3   9627.2   9633.0   9638.8   9644.5   9650.2   9655.9   9572.5

 TRANSPORT PROPERTIES (GASES ONLY)
   CONDUCTIVITY IN UNITS OF MILLIWATTS/(CM)(K)

 VISC,MILLIPOISE  0.72765  0.72855  0.72945  0.73036  0.73126  0.73216  0.73306  0.72072

  WITH EQUILIBRIUM REACTIONS

 Cp, KJ/(KG)(K)   22.3450  22.3532  22.3616  22.3705  22.3797  22.3892  22.3992  22.3194
 CONDUCTIVITY     23.6188  23.6405  23.6624  23.6846  23.7069  23.7295  23.7522  23.5444
 PRANDTL NUMBER    0.6884   0.6889   0.6894   0.6898   0.6903   0.6908   0.6913   0.6832

  WITH FROZEN REACTIONS

 Cp, KJ/(KG)(K)   20.6315  20.6320  20.6324  20.6328  20.6332  20.6337  20.6341  20.6280
 CONDUCTIVITY     22.5580  22.5875  22.6170  22.6465  22.6759  22.7054  22.7349  22.3268
 PRANDTL NUMBER    0.6655   0.6655   0.6654   0.6654   0.6654   0.6654   0.6653   0.6659

 MOLE FRACTIONS

 *e-              0.00041  0.00042  0.00043  0.00044  0.00044  0.00045  0.00046  0.00034
 *H               0.99796  0.99796  0.99796  0.99796  0.99795  0.99795  0.99795  0.99786
 *H+              0.00041  0.00042  0.00043  0.00044  0.00044  0.00045  0.00046  0.00034
 *H2              0.00121  0.00120  0.00118  0.00117  0.00116  0.00114  0.00113  0.00146

  * THERMODYNAMIC PROPERTIES FITTED TO 20000.K

 NOTE. WEIGHT FRACTION OF FUEL IN TOTAL FUELS AND OF OXIDANT IN TOTAL OXIDANTS









               THERMODYNAMIC EQUILIBRIUM PROPERTIES AT ASSIGNED

                           TEMPERATURE AND PRESSURE

 CASE =                

             REACTANT                    WT FRACTION      ENERGY      TEMP
                                          (SEE NOTE)     KJ/KG-MOL      K  
             H2                           1.0000000         0.000      0.000

 O/F=    0.00000  %FUEL=100.000000  R,EQ.RATIO= 0.000000  PHI,EQ.RATIO= 0.000000

 THERMODYNAMIC PROPERTIES

 P, BAR            1.3200   1.3200   1.3200   1.3200   1.3200   1.3200   1.3200   1.3200
 T, K             6910.00  6920.00  6930.00  6940.00  6950.00  6960.00  6970.00  6980.00
 RHO, KG/CU M    2.3183-3 2.3149-3 2.3115-3 2.3081-3 2.3047-3 2.3014-3 2.2980-3 2.2947-3
 H, KJ/KG        352464.4 352687.6 352910.9 353134.3 353357.6 353581.1 353804.6 354028.1
 U, KJ/KG        295526.1 295665.6 295805.2 295944.8 296084.5 296224.2 296364.0 296503.8
 G, KJ/KG       -866018.6-867782.1-869546.0-871310.1-873074.6-874839.4-876604.6-878370.0
 S, KJ/(KG)(K)   176.3362 176.3685 176.4007 176.4329 176.4651 176.4972 176.5293 176.5613

 M, (1/n)           1.009    1.009    1.009    1.009    1.009    1.009    1.009    1.009
 (dLV/dLP)t      -1.00161 -1.00160 -1.00159 -1.00157 -1.00156 -1.00155 -1.00154 -1.00152
 (dLV/dLT)p        1.0160   1.0160   1.0159   1.0158   1.0157   1.0157   1.0156   1.0156
 Cp, KJ/(KG)(K)   22.3229  22.3267  22.3310  22.3356  22.3405  22.3459  22.3516  22.3577
 GAMMAs            1.6115   1.6112   1.6109   1.6106   1.6104   1.6101   1.6097   1.6094
 SON VEL,M/SEC     9578.8   9585.1   9591.3   9597.5   9603.7   9609.8   9615.8   9621.9

 TRANSPORT PROPERTIES (GASES ONLY)
   CONDUCTIVITY IN UNITS OF MILLIWATTS/(CM)(K)

 VISC,MILLIPOISE  0.72163  0.72253  0.72344  0.72435  0.72526  0.72616  0.72707  0.72797

  WITH EQUILIBRIUM REACTIONS

 Cp, KJ/(KG)(K)   22.3229  22.3267  22.3310  22.3356  22.3405  22.3459  22.3516  22.3577
 CONDUCTIVITY     23.5629  23.5817  23.6007  23.6200  23.6395  23.6593  23.6793  23.6996
 PRANDTL NUMBER    0.6837   0.6841   0.6845   0.6850   0.6854   0.6858   0.6863   0.6868

  WITH FROZEN REACTIONS

 Cp, KJ/(KG)(K)   20.6284  20.6288  20.6292  20.6296  20.6300  20.6304  20.6308  20.6312
 CONDUCTIVITY     22.3563  22.3858  22.4153  22.4448  22.4742  22.5037  22.5332  22.5627
 PRANDTL NUMBER    0.6659   0.6658   0.6658   0.6658   0.6657   0.6657   0.6657   0.6657

 MOLE FRACTIONS

 *e-              0.00035  0.00035  0.00036  0.00037  0.00037  0.00038  0.00039  0.00039
 *H               0.99786  0.99787  0.99787  0.99787  0.99787  0.99788  0.99788  0.99788
 *H+              0.00035  0.00035  0.00036  0.00037  0.00037  0.00038  0.00039  0.00039
 *H2              0.00144  0.00143  0.00141  0.00139  0.00138  0.00136  0.00135  0.00133

  * THERMODYNAMIC PROPERTIES FITTED TO 20000.K

 NOTE. WEIGHT FRACTION OF FUEL IN TOTAL FUELS AND OF OXIDANT IN TOTAL OXIDANTS









               THERMODYNAMIC EQUILIBRIUM PROPERTIES AT ASSIGNED

                           TEMPERATURE AND PRESSURE

 CASE =                

             REACTANT                    WT FRACTION      ENERGY      TEMP
                                          (SEE NOTE)     KJ/KG-MOL      K  
             H2                           1.0000000         0.000      0.000

 O/F=    0.00000  %FUEL=100.000000  R,EQ.RATIO= 0.000000  PHI,EQ.RATIO= 0.000000

 THERMODYNAMIC PROPERTIES

 P, BAR            1.3200   1.3200   1.3200   1.3200   1.3200   1.3200   1.4800   1.4800
 T, K             6990.00  7000.00  7010.00  7020.00  7030.00  7040.00  6900.00  6910.00
 RHO, KG/CU M    2.2913-3 2.2880-3 2.2847-3 2.2814-3 2.2781-3 2.2748-3 2.6036-3 2.5998-3
 H, KJ/KG        354251.7 354475.4 354699.1 354923.0 355146.9 355370.8 352132.7 352356.3
 U, KJ/KG        296643.7 296783.7 296923.8 297063.9 297204.1 297344.4 295289.2 295429.0
 G, KJ/KG       -880135.8-881901.9-883668.3-885435.0-887202.1-888969.5-857751.3-859504.9
 S, KJ/(KG)(K)   176.5934 176.6253 176.6573 176.6892 176.7210 176.7529 175.3455 175.3779

 M, (1/n)           1.009    1.009    1.009    1.009    1.009    1.009    1.009    1.009
 (dLV/dLP)t      -1.00151 -1.00150 -1.00149 -1.00148 -1.00147 -1.00146 -1.00179 -1.00177
 (dLV/dLT)p        1.0155   1.0155   1.0154   1.0154   1.0153   1.0153   1.0173   1.0172
 Cp, KJ/(KG)(K)   22.3641  22.3710  22.3781  22.3857  22.3936  22.4018  22.3629  22.3642
 GAMMAs            1.6091   1.6087   1.6084   1.6080   1.6077   1.6073   1.6114   1.6113
 SON VEL,M/SEC     9627.9   9633.8   9639.8   9645.7   9651.5   9657.3   9570.8   9577.3

 TRANSPORT PROPERTIES (GASES ONLY)
   CONDUCTIVITY IN UNITS OF MILLIWATTS/(CM)(K)

 VISC,MILLIPOISE  0.72888  0.72978  0.73069  0.73159  0.73249  0.73339  0.72112  0.72203

  WITH EQUILIBRIUM REACTIONS

 Cp, KJ/(KG)(K)   22.3641  22.3710  22.3781  22.3857  22.3936  22.4018  22.3629  22.3642
 CONDUCTIVITY     23.7200  23.7408  23.7617  23.7828  23.8042  23.8258  23.6672  23.6839
 PRANDTL NUMBER    0.6872   0.6877   0.6881   0.6886   0.6891   0.6896   0.6814   0.6818

  WITH FROZEN REACTIONS

 Cp, KJ/(KG)(K)   20.6316  20.6321  20.6325  20.6329  20.6333  20.6337  20.6277  20.6281
 CONDUCTIVITY     22.5922  22.6217  22.6512  22.6807  22.7102  22.7396  22.3328  22.3623
 PRANDTL NUMBER    0.6656   0.6656   0.6656   0.6655   0.6655   0.6655   0.6661   0.6660

 MOLE FRACTIONS

 *e-              0.00040  0.00041  0.00042  0.00042  0.00043  0.00044  0.00032  0.00033
 *H               0.99788  0.99788  0.99788  0.99788  0.99788  0.99788  0.99772  0.99773
 *H+              0.00040  0.00041  0.00042  0.00042  0.00043  0.00044  0.00032  0.00033
 *H2              0.00132  0.00130  0.00129  0.00127  0.00126  0.00124  0.00164  0.00162

  * THERMODYNAMIC PROPERTIES FITTED TO 20000.K

 NOTE. WEIGHT FRACTION OF FUEL IN TOTAL FUELS AND OF OXIDANT IN TOTAL OXIDANTS









               THERMODYNAMIC EQUILIBRIUM PROPERTIES AT ASSIGNED

                           TEMPERATURE AND PRESSURE

 CASE =                

             REACTANT                    WT FRACTION      ENERGY      TEMP
                                          (SEE NOTE)     KJ/KG-MOL      K  
             H2                           1.0000000         0.000      0.000

 O/F=    0.00000  %FUEL=100.000000  R,EQ.RATIO= 0.000000  PHI,EQ.RATIO= 0.000000

 THERMODYNAMIC PROPERTIES

 P, BAR            1.4800   1.4800   1.4800   1.4800   1.4800   1.4800   1.4800   1.4800
 T, K             6920.00  6930.00  6940.00  6950.00  6960.00  6970.00  6980.00  6990.00
 RHO, KG/CU M    2.5960-3 2.5922-3 2.5884-3 2.5846-3 2.5808-3 2.5771-3 2.5733-3 2.5696-3
 H, KJ/KG        352580.0 352803.7 353027.3 353251.1 353474.8 353698.6 353922.4 354146.3
 U, KJ/KG        295568.9 295708.8 295848.7 295988.6 296128.6 296268.6 296408.7 296548.8
 G, KJ/KG       -861258.8-863013.1-864767.7-866522.6-868277.8-870033.4-871789.3-873545.4
 S, KJ/(KG)(K)   175.4102 175.4425 175.4748 175.5070 175.5392 175.5713 175.6034 175.6354

 M, (1/n)           1.009    1.009    1.009    1.009    1.009    1.009    1.009    1.009
 (dLV/dLP)t      -1.00176 -1.00174 -1.00173 -1.00171 -1.00170 -1.00169 -1.00167 -1.00166
 (dLV/dLT)p        1.0171   1.0170   1.0169   1.0168   1.0167   1.0167   1.0166   1.0165
 Cp, KJ/(KG)(K)   22.3659  22.3680  22.3705  22.3734  22.3766  22.3802  22.3842  22.3886
 GAMMAs            1.6111   1.6108   1.6106   1.6104   1.6101   1.6099   1.6096   1.6094
 SON VEL,M/SEC     9583.7   9590.1   9596.5   9602.9   9609.1   9615.4   9621.6   9627.8

 TRANSPORT PROPERTIES (GASES ONLY)
   CONDUCTIVITY IN UNITS OF MILLIWATTS/(CM)(K)

 VISC,MILLIPOISE  0.72294  0.72385  0.72475  0.72566  0.72657  0.72747  0.72838  0.72928

  WITH EQUILIBRIUM REACTIONS

 Cp, KJ/(KG)(K)   22.3659  22.3680  22.3705  22.3734  22.3766  22.3802  22.3842  22.3886
 CONDUCTIVITY     23.7009  23.7182  23.7357  23.7536  23.7716  23.7900  23.8086  23.8274
 PRANDTL NUMBER    0.6822   0.6826   0.6831   0.6835   0.6839   0.6844   0.6848   0.6852

  WITH FROZEN REACTIONS

 Cp, KJ/(KG)(K)   20.6285  20.6289  20.6293  20.6297  20.6301  20.6305  20.6309  20.6313
 CONDUCTIVITY     22.3918  22.4212  22.4507  22.4802  22.5097  22.5392  22.5687  22.5982
 PRANDTL NUMBER    0.6660   0.6660   0.6660   0.6659   0.6659   0.6659   0.6658   0.6658

 MOLE FRACTIONS

 *e-              0.00033  0.00034  0.00035  0.00035  0.00036  0.00037  0.00037  0.00038
 *H               0.99773  0.99774  0.99774  0.99775  0.99775  0.99776  0.99776  0.99777
 *H+              0.00033  0.00034  0.00035  0.00035  0.00036  0.00037  0.00037  0.00038
 *H2              0.00160  0.00158  0.00156  0.00154  0.00153  0.00151  0.00149  0.00147

  * THERMODYNAMIC PROPERTIES FITTED TO 20000.K

 NOTE. WEIGHT FRACTION OF FUEL IN TOTAL FUELS AND OF OXIDANT IN TOTAL OXIDANTS









               THERMODYNAMIC EQUILIBRIUM PROPERTIES AT ASSIGNED

                           TEMPERATURE AND PRESSURE

 CASE =                

             REACTANT                    WT FRACTION      ENERGY      TEMP
                                          (SEE NOTE)     KJ/KG-MOL      K  
             H2                           1.0000000         0.000      0.000

 O/F=    0.00000  %FUEL=100.000000  R,EQ.RATIO= 0.000000  PHI,EQ.RATIO= 0.000000

 THERMODYNAMIC PROPERTIES

 P, BAR            1.4800   1.4800   1.4800   1.4800   1.4800   1.6500   1.6500   1.6500
 T, K             7000.00  7010.00  7020.00  7030.00  7040.00  6900.00  6910.00  6920.00
 RHO, KG/CU M    2.5658-3 2.5621-3 2.5584-3 2.5547-3 2.5510-3 2.9033-3 2.8990-3 2.8948-3
 H, KJ/KG        354370.2 354594.2 354818.2 355042.2 355266.4 352022.0 352246.2 352470.3
 U, KJ/KG        296688.9 296829.1 296969.4 297109.7 297250.1 295190.1 295330.4 295470.7
 G, KJ/KG       -875302.0-877058.8-878816.0-880573.4-882331.2-851571.1-853315.6-855060.5
 S, KJ/(KG)(K)   175.6675 175.6994 175.7314 175.7633 175.7951 174.4338 174.4663 174.4987

 M, (1/n)           1.009    1.009    1.009    1.009    1.009    1.009    1.009    1.009
 (dLV/dLP)t      -1.00165 -1.00163 -1.00162 -1.00161 -1.00160 -1.00197 -1.00195 -1.00193
 (dLV/dLT)p        1.0164   1.0164   1.0163   1.0162   1.0162   1.0186   1.0184   1.0183
 Cp, KJ/(KG)(K)   22.3934  22.3985  22.4040  22.4098  22.4161  22.4172  22.4164  22.4160
 GAMMAs            1.6091   1.6088   1.6085   1.6081   1.6078   1.6109   1.6107   1.6106
 SON VEL,M/SEC     9633.9   9640.1   9646.1   9652.1   9658.1   9568.1   9574.8   9581.4

 TRANSPORT PROPERTIES (GASES ONLY)
   CONDUCTIVITY IN UNITS OF MILLIWATTS/(CM)(K)

 VISC,MILLIPOISE  0.73019  0.73110  0.73200  0.73290  0.73381  0.72153  0.72243  0.72334

  WITH EQUILIBRIUM REACTIONS

 Cp, KJ/(KG)(K)   22.3934  22.3985  22.4040  22.4098  22.4161  22.4172  22.4164  22.4160
 CONDUCTIVITY     23.8465  23.8659  23.8855  23.9053  23.9254  23.7988  23.8136  23.8287
 PRANDTL NUMBER    0.6857   0.6861   0.6866   0.6871   0.6875   0.6796   0.6800   0.6805

  WITH FROZEN REACTIONS

 Cp, KJ/(KG)(K)   20.6317  20.6321  20.6325  20.6329  20.6333  20.6275  20.6278  20.6282
 CONDUCTIVITY     22.6277  22.6571  22.6866  22.7161  22.7456  22.3390  22.3684  22.3979
 PRANDTL NUMBER    0.6658   0.6658   0.6657   0.6657   0.6657   0.6662   0.6662   0.6662

 MOLE FRACTIONS

 *e-              0.00039  0.00039  0.00040  0.00041  0.00041  0.00031  0.00031  0.00032
 *H               0.99777  0.99777  0.99777  0.99778  0.99778  0.99757  0.99758  0.99759
 *H+              0.00039  0.00039  0.00040  0.00041  0.00041  0.00031  0.00031  0.00032
 *H2              0.00146  0.00144  0.00142  0.00141  0.00139  0.00182  0.00180  0.00178

  * THERMODYNAMIC PROPERTIES FITTED TO 20000.K

 NOTE. WEIGHT FRACTION OF FUEL IN TOTAL FUELS AND OF OXIDANT IN TOTAL OXIDANTS









               THERMODYNAMIC EQUILIBRIUM PROPERTIES AT ASSIGNED

                           TEMPERATURE AND PRESSURE

 CASE =                

             REACTANT                    WT FRACTION      ENERGY      TEMP
                                          (SEE NOTE)     KJ/KG-MOL      K  
             H2                           1.0000000         0.000      0.000

 O/F=    0.00000  %FUEL=100.000000  R,EQ.RATIO= 0.000000  PHI,EQ.RATIO= 0.000000

 THERMODYNAMIC PROPERTIES

 P, BAR            1.6500   1.6500   1.6500   1.6500   1.6500   1.6500   1.6500   1.6500
 T, K             6930.00  6940.00  6950.00  6960.00  6970.00  6980.00  6990.00  7000.00
 RHO, KG/CU M    2.8905-3 2.8863-3 2.8820-3 2.8778-3 2.8736-3 2.8694-3 2.8652-3 2.8611-3
 H, KJ/KG        352694.5 352918.7 353142.8 353367.0 353591.2 353815.4 354039.6 354263.9
 U, KJ/KG        295611.0 295751.3 295891.6 296031.9 296172.2 296312.6 296453.0 296593.4
 G, KJ/KG       -856805.6-858551.1-860296.9-862043.0-863789.4-865536.2-867283.3-869030.7
 S, KJ/(KG)(K)   174.5310 174.5634 174.5956 174.6279 174.6601 174.6922 174.7243 174.7564

 M, (1/n)           1.009    1.009    1.009    1.009    1.009    1.009    1.009    1.009
 (dLV/dLP)t      -1.00191 -1.00190 -1.00188 -1.00186 -1.00185 -1.00183 -1.00182 -1.00180
 (dLV/dLT)p        1.0182   1.0181   1.0180   1.0179   1.0178   1.0177   1.0176   1.0175
 Cp, KJ/(KG)(K)   22.4159  22.4163  22.4171  22.4182  22.4198  22.4217  22.4240  22.4267
 GAMMAs            1.6105   1.6103   1.6101   1.6099   1.6097   1.6095   1.6093   1.6091
 SON VEL,M/SEC     9588.0   9594.6   9601.1   9607.6   9614.0   9620.4   9626.8   9633.1

 TRANSPORT PROPERTIES (GASES ONLY)
   CONDUCTIVITY IN UNITS OF MILLIWATTS/(CM)(K)

 VISC,MILLIPOISE  0.72425  0.72516  0.72606  0.72697  0.72788  0.72878  0.72969  0.73060

  WITH EQUILIBRIUM REACTIONS

 Cp, KJ/(KG)(K)   22.4159  22.4163  22.4171  22.4182  22.4198  22.4217  22.4240  22.4267
 CONDUCTIVITY     23.8441  23.8599  23.8759  23.8922  23.9088  23.9257  23.9428  23.9602
 PRANDTL NUMBER    0.6809   0.6813   0.6817   0.6821   0.6825   0.6830   0.6834   0.6838

  WITH FROZEN REACTIONS

 Cp, KJ/(KG)(K)   20.6286  20.6290  20.6294  20.6298  20.6302  20.6306  20.6310  20.6314
 CONDUCTIVITY     22.4273  22.4568  22.4863  22.5157  22.5452  22.5747  22.6042  22.6337
 PRANDTL NUMBER    0.6662   0.6661   0.6661   0.6661   0.6661   0.6660   0.6660   0.6660

 MOLE FRACTIONS

 *e-              0.00032  0.00033  0.00033  0.00034  0.00035  0.00035  0.00036  0.00037
 *H               0.99759  0.99760  0.99761  0.99762  0.99762  0.99763  0.99764  0.99764
 *H+              0.00032  0.00033  0.00033  0.00034  0.00035  0.00035  0.00036  0.00037
 *H2              0.00176  0.00174  0.00172  0.00170  0.00168  0.00166  0.00164  0.00162

  * THERMODYNAMIC PROPERTIES FITTED TO 20000.K

 NOTE. WEIGHT FRACTION OF FUEL IN TOTAL FUELS AND OF OXIDANT IN TOTAL OXIDANTS









               THERMODYNAMIC EQUILIBRIUM PROPERTIES AT ASSIGNED

                           TEMPERATURE AND PRESSURE

 CASE =                

             REACTANT                    WT FRACTION      ENERGY      TEMP
                                          (SEE NOTE)     KJ/KG-MOL      K  
             H2                           1.0000000         0.000      0.000

 O/F=    0.00000  %FUEL=100.000000  R,EQ.RATIO= 0.000000  PHI,EQ.RATIO= 0.000000

 THERMODYNAMIC PROPERTIES

 P, BAR            1.6500   1.6500   1.6500   1.6500   1.8000   1.8000   1.8000   1.8000
 T, K             7010.00  7020.00  7030.00  7040.00  6900.00  6910.00  6920.00  6930.00
 RHO, KG/CU M    2.8569-3 2.8528-3 2.8487-3 2.8445-3 3.1678-3 3.1631-3 3.1585-3 3.1538-3
 H, KJ/KG        354488.2 354712.5 354936.8 355161.2 351927.4 352152.1 352376.8 352601.4
 U, KJ/KG        296733.9 296874.4 297014.9 297155.5 295105.6 295246.3 295387.0 295527.7
 G, KJ/KG       -870778.4-872526.4-874274.8-876023.5-846626.5-848363.7-850101.3-851839.1
 S, KJ/(KG)(K)   174.7884 174.8204 174.8523 174.8842 173.7035 173.7360 173.7685 173.8009

 M, (1/n)           1.009    1.009    1.009    1.009    1.010    1.010    1.010    1.010
 (dLV/dLP)t      -1.00179 -1.00177 -1.00176 -1.00174 -1.00212 -1.00210 -1.00208 -1.00207
 (dLV/dLT)p        1.0174   1.0173   1.0172   1.0172   1.0197   1.0196   1.0194   1.0193
 Cp, KJ/(KG)(K)   22.4298  22.4333  22.4371  22.4413  22.4705  22.4678  22.4656  22.4638
 GAMMAs            1.6088   1.6086   1.6083   1.6080   1.6102   1.6101   1.6100   1.6099
 SON VEL,M/SEC     9639.3   9645.6   9651.8   9658.0   9565.3   9572.1   9578.9   9585.6

 TRANSPORT PROPERTIES (GASES ONLY)
   CONDUCTIVITY IN UNITS OF MILLIWATTS/(CM)(K)

 VISC,MILLIPOISE  0.73150  0.73241  0.73331  0.73422  0.72187  0.72278  0.72368  0.72459

  WITH EQUILIBRIUM REACTIONS

 Cp, KJ/(KG)(K)   22.4298  22.4333  22.4371  22.4413  22.4705  22.4678  22.4656  22.4638
 CONDUCTIVITY     23.9779  23.9959  24.0141  24.0326  23.9155  23.9287  23.9421  23.9560
 PRANDTL NUMBER    0.6843   0.6847   0.6852   0.6856   0.6783   0.6787   0.6791   0.6795

  WITH FROZEN REACTIONS

 Cp, KJ/(KG)(K)   20.6318  20.6322  20.6326  20.6330  20.6273  20.6277  20.6281  20.6284
 CONDUCTIVITY     22.6631  22.6926  22.7221  22.7516  22.3442  22.3737  22.4031  22.4325
 PRANDTL NUMBER    0.6659   0.6659   0.6659   0.6658   0.6664   0.6664   0.6663   0.6663

 MOLE FRACTIONS

 *e-              0.00037  0.00038  0.00039  0.00039  0.00029  0.00030  0.00030  0.00031
 *H               0.99765  0.99765  0.99766  0.99766  0.99743  0.99744  0.99745  0.99746
 *H+              0.00037  0.00038  0.00039  0.00039  0.00029  0.00030  0.00030  0.00031
 *H2              0.00161  0.00159  0.00157  0.00155  0.00199  0.00197  0.00194  0.00192

  * THERMODYNAMIC PROPERTIES FITTED TO 20000.K

 NOTE. WEIGHT FRACTION OF FUEL IN TOTAL FUELS AND OF OXIDANT IN TOTAL OXIDANTS









               THERMODYNAMIC EQUILIBRIUM PROPERTIES AT ASSIGNED

                           TEMPERATURE AND PRESSURE

 CASE =                

             REACTANT                    WT FRACTION      ENERGY      TEMP
                                          (SEE NOTE)     KJ/KG-MOL      K  
             H2                           1.0000000         0.000      0.000

 O/F=    0.00000  %FUEL=100.000000  R,EQ.RATIO= 0.000000  PHI,EQ.RATIO= 0.000000

 THERMODYNAMIC PROPERTIES

 P, BAR            1.8000   1.8000   1.8000   1.8000   1.8000   1.8000   1.8000   1.8000
 T, K             6940.00  6950.00  6960.00  6970.00  6980.00  6990.00  7000.00  7010.00
 RHO, KG/CU M    3.1492-3 3.1446-3 3.1400-3 3.1354-3 3.1308-3 3.1262-3 3.1217-3 3.1172-3
 H, KJ/KG        352826.0 353050.7 353275.3 353499.9 353724.5 353949.1 354173.7 354398.3
 U, KJ/KG        295668.4 295809.1 295949.8 296090.5 296231.2 296371.9 296512.6 296653.3
 G, KJ/KG       -853577.3-855315.8-857054.6-858793.7-860533.2-862273.0-864013.1-865753.5
 S, KJ/(KG)(K)   173.8333 173.8657 173.8980 173.9302 173.9624 173.9946 174.0267 174.0588

 M, (1/n)           1.010    1.010    1.009    1.009    1.009    1.009    1.009    1.009
 (dLV/dLP)t      -1.00205 -1.00203 -1.00201 -1.00199 -1.00197 -1.00196 -1.00194 -1.00192
 (dLV/dLT)p        1.0192   1.0190   1.0189   1.0188   1.0187   1.0186   1.0185   1.0184
 Cp, KJ/(KG)(K)   22.4624  22.4614  22.4608  22.4606  22.4608  22.4614  22.4625  22.4638
 GAMMAs            1.6098   1.6097   1.6095   1.6094   1.6092   1.6090   1.6089   1.6087
 SON VEL,M/SEC     9592.3   9599.0   9605.6   9612.2   9618.7   9625.2   9631.7   9638.1

 TRANSPORT PROPERTIES (GASES ONLY)
   CONDUCTIVITY IN UNITS OF MILLIWATTS/(CM)(K)

 VISC,MILLIPOISE  0.72550  0.72640  0.72731  0.72822  0.72912  0.73003  0.73094  0.73184

  WITH EQUILIBRIUM REACTIONS

 Cp, KJ/(KG)(K)   22.4624  22.4614  22.4608  22.4606  22.4608  22.4614  22.4625  22.4638
 CONDUCTIVITY     23.9701  23.9845  23.9993  24.0144  24.0297  24.0454  24.0614  24.0776
 PRANDTL NUMBER    0.6799   0.6803   0.6807   0.6811   0.6815   0.6819   0.6824   0.6828

  WITH FROZEN REACTIONS

 Cp, KJ/(KG)(K)   20.6288  20.6292  20.6296  20.6300  20.6304  20.6308  20.6311  20.6315
 CONDUCTIVITY     22.4620  22.4914  22.5209  22.5504  22.5798  22.6093  22.6388  22.6682
 PRANDTL NUMBER    0.6663   0.6663   0.6662   0.6662   0.6662   0.6661   0.6661   0.6661

 MOLE FRACTIONS

 *e-              0.00031  0.00032  0.00033  0.00033  0.00034  0.00034  0.00035  0.00036
 *H               0.99747  0.99748  0.99749  0.99750  0.99751  0.99752  0.99753  0.99753
 *H+              0.00031  0.00032  0.00033  0.00033  0.00034  0.00034  0.00035  0.00036
 *H2              0.00190  0.00188  0.00185  0.00183  0.00181  0.00179  0.00177  0.00175

  * THERMODYNAMIC PROPERTIES FITTED TO 20000.K

 NOTE. WEIGHT FRACTION OF FUEL IN TOTAL FUELS AND OF OXIDANT IN TOTAL OXIDANTS









               THERMODYNAMIC EQUILIBRIUM PROPERTIES AT ASSIGNED

                           TEMPERATURE AND PRESSURE

 CASE =                

             REACTANT                    WT FRACTION      ENERGY      TEMP
                                          (SEE NOTE)     KJ/KG-MOL      K  
             H2                           1.0000000         0.000      0.000

 O/F=    0.00000  %FUEL=100.000000  R,EQ.RATIO= 0.000000  PHI,EQ.RATIO= 0.000000

 THERMODYNAMIC PROPERTIES

 P, BAR            1.8000   1.8000   1.8000   2.0000   2.0000   2.0000   2.0000   2.0000
 T, K             7020.00  7030.00  7040.00  6900.00  6910.00  6920.00  6930.00  6940.00
 RHO, KG/CU M    3.1126-3 3.1081-3 3.1036-3 3.5206-3 3.5154-3 3.5102-3 3.5050-3 3.4999-3
 H, KJ/KG        354623.0 354847.7 355072.3 351804.7 352030.2 352255.6 352480.9 352706.3
 U, KJ/KG        296794.1 296934.9 297075.7 294996.3 295137.7 295279.0 295420.3 295561.6
 G, KJ/KG       -867494.3-869235.3-870976.7-840640.5-842368.8-844097.5-845826.5-847555.8
 S, KJ/(KG)(K)   174.0908 174.1228 174.1547 172.8181 172.8508 172.8834 172.9159 172.9484

 M, (1/n)           1.009    1.009    1.009    1.010    1.010    1.010    1.010    1.010
 (dLV/dLP)t      -1.00191 -1.00189 -1.00187 -1.00233 -1.00231 -1.00229 -1.00227 -1.00225
 (dLV/dLT)p        1.0183   1.0182   1.0181   1.0213   1.0211   1.0210   1.0208   1.0206
 Cp, KJ/(KG)(K)   22.4656  22.4678  22.4704  22.5474  22.5425  22.5380  22.5339  22.5302
 GAMMAs            1.6085   1.6082   1.6080   1.6091   1.6091   1.6090   1.6090   1.6089
 SON VEL,M/SEC     9644.5   9650.8   9657.1   9560.8   9567.8   9574.8   9581.7   9588.6

 TRANSPORT PROPERTIES (GASES ONLY)
   CONDUCTIVITY IN UNITS OF MILLIWATTS/(CM)(K)

 VISC,MILLIPOISE  0.73275  0.73365  0.73456  0.72231  0.72321  0.72412  0.72503  0.72593

  WITH EQUILIBRIUM REACTIONS

 Cp, KJ/(KG)(K)   22.4656  22.4678  22.4704  22.5474  22.5425  22.5380  22.5339  22.5302
 CONDUCTIVITY     24.0941  24.1110  24.1280  24.0718  24.0828  24.0941  24.1058  24.1178
 PRANDTL NUMBER    0.6832   0.6837   0.6841   0.6766   0.6770   0.6774   0.6777   0.6781

  WITH FROZEN REACTIONS

 Cp, KJ/(KG)(K)   20.6319  20.6323  20.6327  20.6271  20.6275  20.6279  20.6283  20.6286
 CONDUCTIVITY     22.6977  22.7272  22.7567  22.3511  22.3805  22.4099  22.4393  22.4687
 PRANDTL NUMBER    0.6661   0.6660   0.6660   0.6666   0.6666   0.6665   0.6665   0.6665

 MOLE FRACTIONS

 *e-              0.00036  0.00037  0.00038  0.00028  0.00028  0.00029  0.00029  0.00030
 *H               0.99754  0.99755  0.99755  0.99724  0.99725  0.99727  0.99728  0.99729
 *H+              0.00036  0.00037  0.00038  0.00028  0.00028  0.00029  0.00029  0.00030
 *H2              0.00173  0.00171  0.00169  0.00221  0.00218  0.00216  0.00213  0.00211

  * THERMODYNAMIC PROPERTIES FITTED TO 20000.K

 NOTE. WEIGHT FRACTION OF FUEL IN TOTAL FUELS AND OF OXIDANT IN TOTAL OXIDANTS









               THERMODYNAMIC EQUILIBRIUM PROPERTIES AT ASSIGNED

                           TEMPERATURE AND PRESSURE

 CASE =                

             REACTANT                    WT FRACTION      ENERGY      TEMP
                                          (SEE NOTE)     KJ/KG-MOL      K  
             H2                           1.0000000         0.000      0.000

 O/F=    0.00000  %FUEL=100.000000  R,EQ.RATIO= 0.000000  PHI,EQ.RATIO= 0.000000

 THERMODYNAMIC PROPERTIES

 P, BAR            2.0000   2.0000   2.0000   2.0000   2.0000   2.0000   2.0000   2.0000
 T, K             6950.00  6960.00  6970.00  6980.00  6990.00  7000.00  7010.00  7020.00
 RHO, KG/CU M    3.4947-3 3.4896-3 3.4845-3 3.4794-3 3.4743-3 3.4693-3 3.4642-3 3.4592-3
 H, KJ/KG        352931.5 353156.8 353382.0 353607.2 353832.4 354057.6 354282.8 354507.9
 U, KJ/KG        295702.8 295844.0 295985.3 296126.5 296267.7 296408.8 296550.0 296691.2
 G, KJ/KG       -849285.4-851015.4-852745.7-854476.3-856207.3-857938.5-859670.1-861402.0
 S, KJ/(KG)(K)   172.9809 173.0132 173.0456 173.0779 173.1101 173.1423 173.1744 173.2065

 M, (1/n)           1.010    1.010    1.010    1.010    1.010    1.010    1.010    1.010
 (dLV/dLP)t      -1.00222 -1.00220 -1.00218 -1.00216 -1.00214 -1.00212 -1.00211 -1.00209
 (dLV/dLT)p        1.0205   1.0203   1.0202   1.0201   1.0199   1.0198   1.0197   1.0195
 Cp, KJ/(KG)(K)   22.5270  22.5242  22.5218  22.5198  22.5183  22.5171  22.5164  22.5161
 GAMMAs            1.6089   1.6088   1.6087   1.6086   1.6085   1.6083   1.6082   1.6080
 SON VEL,M/SEC     9595.4   9602.2   9609.0   9615.7   9622.4   9629.0   9635.6   9642.2

 TRANSPORT PROPERTIES (GASES ONLY)
   CONDUCTIVITY IN UNITS OF MILLIWATTS/(CM)(K)

 VISC,MILLIPOISE  0.72684  0.72774  0.72865  0.72956  0.73046  0.73137  0.73227  0.73318

  WITH EQUILIBRIUM REACTIONS

 Cp, KJ/(KG)(K)   22.5270  22.5242  22.5218  22.5198  22.5183  22.5171  22.5164  22.5161
 CONDUCTIVITY     24.1302  24.1429  24.1559  24.1693  24.1830  24.1971  24.2114  24.2261
 PRANDTL NUMBER    0.6785   0.6790   0.6794   0.6798   0.6802   0.6806   0.6810   0.6814

  WITH FROZEN REACTIONS

 Cp, KJ/(KG)(K)   20.6290  20.6294  20.6298  20.6301  20.6305  20.6309  20.6313  20.6317
 CONDUCTIVITY     22.4982  22.5276  22.5570  22.5865  22.6159  22.6453  22.6748  22.7043
 PRANDTL NUMBER    0.6665   0.6664   0.6664   0.6664   0.6663   0.6663   0.6663   0.6662

 MOLE FRACTIONS

 *e-              0.00030  0.00031  0.00031  0.00032  0.00033  0.00033  0.00034  0.00034
 *H               0.99731  0.99732  0.99733  0.99734  0.99736  0.99737  0.99738  0.99739
 *H+              0.00030  0.00031  0.00031  0.00032  0.00033  0.00033  0.00034  0.00034
 *H2              0.00208  0.00206  0.00204  0.00201  0.00199  0.00197  0.00195  0.00192

  * THERMODYNAMIC PROPERTIES FITTED TO 20000.K

 NOTE. WEIGHT FRACTION OF FUEL IN TOTAL FUELS AND OF OXIDANT IN TOTAL OXIDANTS









               THERMODYNAMIC EQUILIBRIUM PROPERTIES AT ASSIGNED

                           TEMPERATURE AND PRESSURE

 CASE =                

             REACTANT                    WT FRACTION      ENERGY      TEMP
                                          (SEE NOTE)     KJ/KG-MOL      K  
             H2                           1.0000000         0.000      0.000

 O/F=    0.00000  %FUEL=100.000000  R,EQ.RATIO= 0.000000  PHI,EQ.RATIO= 0.000000

 THERMODYNAMIC PROPERTIES

 P, BAR            2.0000   2.0000   2.2500   2.2500   2.2500   2.2500   2.2500   2.2500
 T, K             7030.00  7040.00  6900.00  6910.00  6920.00  6930.00  6940.00  6950.00
 RHO, KG/CU M    3.4542-3 3.4492-3 3.9618-3 3.9560-3 3.9501-3 3.9443-3 3.9385-3 3.9327-3
 H, KJ/KG        354733.1 354958.3 351655.8 351882.2 352108.6 352335.0 352561.2 352787.4
 U, KJ/KG        296832.4 296973.6 294863.8 295006.0 295148.2 295290.4 295432.5 295574.5
 G, KJ/KG       -863134.2-864866.8-833950.3-835668.8-837387.5-839106.6-840826.0-842545.8
 S, KJ/(KG)(K)   173.2386 173.2706 171.8270 171.8598 171.8925 171.9252 171.9578 171.9904

 M, (1/n)           1.010    1.009    1.010    1.010    1.010    1.010    1.010    1.010
 (dLV/dLP)t      -1.00207 -1.00205 -1.00260 -1.00257 -1.00255 -1.00252 -1.00250 -1.00247
 (dLV/dLT)p        1.0194   1.0193   1.0233   1.0231   1.0229   1.0227   1.0225   1.0223
 Cp, KJ/(KG)(K)   22.5161  22.5166  22.6509  22.6432  22.6360  22.6292  22.6229  22.6170
 GAMMAs            1.6079   1.6077   1.6074   1.6075   1.6075   1.6076   1.6076   1.6076
 SON VEL,M/SEC     9648.7   9655.2   9554.6   9561.8   9569.0   9576.1   9583.2   9590.3

 TRANSPORT PROPERTIES (GASES ONLY)
   CONDUCTIVITY IN UNITS OF MILLIWATTS/(CM)(K)

 VISC,MILLIPOISE  0.73408  0.73499  0.72284  0.72374  0.72464  0.72555  0.72645  0.72736

  WITH EQUILIBRIUM REACTIONS

 Cp, KJ/(KG)(K)   22.5161  22.5166  22.6509  22.6432  22.6360  22.6292  22.6229  22.6170
 CONDUCTIVITY     24.2410  24.2563  24.2679  24.2761  24.2848  24.2938  24.3033  24.3131
 PRANDTL NUMBER    0.6818   0.6823   0.6747   0.6751   0.6754   0.6758   0.6762   0.6766

  WITH FROZEN REACTIONS

 Cp, KJ/(KG)(K)   20.6320  20.6324  20.6270  20.6274  20.6277  20.6281  20.6285  20.6288
 CONDUCTIVITY     22.7337  22.7632  22.3595  22.3888  22.4182  22.4475  22.4769  22.5063
 PRANDTL NUMBER    0.6662   0.6662   0.6668   0.6668   0.6668   0.6667   0.6667   0.6667

 MOLE FRACTIONS

 *e-              0.00035  0.00036  0.00026  0.00027  0.00027  0.00028  0.00028  0.00029
 *H               0.99740  0.99740  0.99699  0.99701  0.99703  0.99705  0.99707  0.99708
 *H+              0.00035  0.00036  0.00026  0.00027  0.00027  0.00028  0.00028  0.00029
 *H2              0.00190  0.00188  0.00248  0.00245  0.00243  0.00240  0.00237  0.00234

  * THERMODYNAMIC PROPERTIES FITTED TO 20000.K

 NOTE. WEIGHT FRACTION OF FUEL IN TOTAL FUELS AND OF OXIDANT IN TOTAL OXIDANTS









               THERMODYNAMIC EQUILIBRIUM PROPERTIES AT ASSIGNED

                           TEMPERATURE AND PRESSURE

 CASE =                

             REACTANT                    WT FRACTION      ENERGY      TEMP
                                          (SEE NOTE)     KJ/KG-MOL      K  
             H2                           1.0000000         0.000      0.000

 O/F=    0.00000  %FUEL=100.000000  R,EQ.RATIO= 0.000000  PHI,EQ.RATIO= 0.000000

 THERMODYNAMIC PROPERTIES

 P, BAR            2.2500   2.2500   2.2500   2.2500   2.2500   2.2500   2.2500   2.2500
 T, K             6960.00  6970.00  6980.00  6990.00  7000.00  7010.00  7020.00  7030.00
 RHO, KG/CU M    3.9269-3 3.9211-3 3.9154-3 3.9097-3 3.9040-3 3.8983-3 3.8926-3 3.8870-3
 H, KJ/KG        353013.6 353239.6 353465.7 353691.7 353917.6 354143.6 354369.5 354595.3
 U, KJ/KG        295716.5 295858.4 296000.3 296142.2 296284.1 296425.9 296567.7 296709.5
 G, KJ/KG       -844265.8-845986.2-847707.0-849428.0-851149.4-852871.0-854593.0-856315.4
 S, KJ/(KG)(K)   172.0229 172.0554 172.0878 172.1201 172.1524 172.1847 172.2169 172.2490

 M, (1/n)           1.010    1.010    1.010    1.010    1.010    1.010    1.010    1.010
 (dLV/dLP)t      -1.00245 -1.00242 -1.00240 -1.00238 -1.00236 -1.00234 -1.00231 -1.00229
 (dLV/dLT)p        1.0221   1.0220   1.0218   1.0216   1.0215   1.0213   1.0212   1.0210
 Cp, KJ/(KG)(K)   22.6116  22.6066  22.6020  22.5979  22.5942  22.5910  22.5881  22.5857
 GAMMAs            1.6075   1.6075   1.6075   1.6074   1.6074   1.6073   1.6072   1.6071
 SON VEL,M/SEC     9597.3   9604.2   9611.2   9618.1   9624.9   9631.7   9638.5   9645.2

 TRANSPORT PROPERTIES (GASES ONLY)
   CONDUCTIVITY IN UNITS OF MILLIWATTS/(CM)(K)

 VISC,MILLIPOISE  0.72826  0.72917  0.73007  0.73098  0.73188  0.73278  0.73369  0.73459

  WITH EQUILIBRIUM REACTIONS

 Cp, KJ/(KG)(K)   22.6116  22.6066  22.6020  22.5979  22.5942  22.5910  22.5881  22.5857
 CONDUCTIVITY     24.3233  24.3338  24.3448  24.3561  24.3677  24.3797  24.3920  24.4047
 PRANDTL NUMBER    0.6770   0.6774   0.6778   0.6782   0.6786   0.6790   0.6794   0.6798

  WITH FROZEN REACTIONS

 Cp, KJ/(KG)(K)   20.6292  20.6296  20.6299  20.6303  20.6307  20.6310  20.6314  20.6318
 CONDUCTIVITY     22.5357  22.5651  22.5945  22.6239  22.6533  22.6827  22.7121  22.7416
 PRANDTL NUMBER    0.6667   0.6666   0.6666   0.6666   0.6665   0.6665   0.6665   0.6664

 MOLE FRACTIONS

 *e-              0.00029  0.00030  0.00030  0.00031  0.00031  0.00032  0.00032  0.00033
 *H               0.99710  0.99712  0.99713  0.99715  0.99716  0.99717  0.99719  0.99720
 *H+              0.00029  0.00030  0.00030  0.00031  0.00031  0.00032  0.00032  0.00033
 *H2              0.00232  0.00229  0.00226  0.00224  0.00221  0.00219  0.00216  0.00214

  * THERMODYNAMIC PROPERTIES FITTED TO 20000.K

 NOTE. WEIGHT FRACTION OF FUEL IN TOTAL FUELS AND OF OXIDANT IN TOTAL OXIDANTS









               THERMODYNAMIC EQUILIBRIUM PROPERTIES AT ASSIGNED

                           TEMPERATURE AND PRESSURE

 CASE =                

             REACTANT                    WT FRACTION      ENERGY      TEMP
                                          (SEE NOTE)     KJ/KG-MOL      K  
             H2                           1.0000000         0.000      0.000

 O/F=    0.00000  %FUEL=100.000000  R,EQ.RATIO= 0.000000  PHI,EQ.RATIO= 0.000000

 THERMODYNAMIC PROPERTIES

 P, BAR            2.2500
 T, K             7040.00
 RHO, KG/CU M    3.8813-3
 H, KJ/KG        354821.2
 U, KJ/KG        296851.3
 G, KJ/KG       -858038.0
 S, KJ/(KG)(K)   172.2811

 M, (1/n)           1.010
 (dLV/dLP)t      -1.00227
 (dLV/dLT)p        1.0209
 Cp, KJ/(KG)(K)   22.5837
 GAMMAs            1.6070
 SON VEL,M/SEC     9651.9

 TRANSPORT PROPERTIES (GASES ONLY)
   CONDUCTIVITY IN UNITS OF MILLIWATTS/(CM)(K)

 VISC,MILLIPOISE  0.73550

  WITH EQUILIBRIUM REACTIONS

 Cp, KJ/(KG)(K)   22.5837
 CONDUCTIVITY     24.4177
 PRANDTL NUMBER    0.6803

  WITH FROZEN REACTIONS

 Cp, KJ/(KG)(K)   20.6322
 CONDUCTIVITY     22.7710
 PRANDTL NUMBER    0.6664

 MOLE FRACTIONS

 *e-              0.00034
 *H               0.99721
 *H+              0.00034
 *H2              0.00212

  * THERMODYNAMIC PROPERTIES FITTED TO 20000.K

 NOTE. WEIGHT FRACTION OF FUEL IN TOTAL FUELS AND OF OXIDANT IN TOTAL OXIDANTS



  
