
 *******************************************************************************

         NASA-GLENN CHEMICAL EQUILIBRIUM PROGRAM CEA2, MAY 21, 2004
                   BY  BONNIE MCBRIDE AND SANFORD GORDON
      REFS: NASA RP-1311, PART I, 1994 AND NASA RP-1311, PART II, 1996

 *******************************************************************************



  prob tp ions
  p,bar= 0.0225,0.025,0.028,0.031,0.035,0.039,0.044,0.049,0.054,0.06,0.067,0.074,
 0.0825,0.091,0.1
  t,k= 1050,1060,1070,1080,1090,1100,1110,1120,1130,1140,1150,1160,1170,1180,1190
  
  reac
  na H2                wt%=100.0000
  
  output short
  output siunits
  output transport
  
 end





               THERMODYNAMIC EQUILIBRIUM PROPERTIES AT ASSIGNED

                           TEMPERATURE AND PRESSURE

 CASE =                

             REACTANT                    WT FRACTION      ENERGY      TEMP
                                          (SEE NOTE)     KJ/KG-MOL      K  
             H2                           1.0000000         0.000      0.000

 O/F=    0.00000  %FUEL=100.000000  R,EQ.RATIO= 0.000000  PHI,EQ.RATIO= 0.000000

 THERMODYNAMIC PROPERTIES

 P, BAR           0.02250  0.02250  0.02250  0.02250  0.02250  0.02250  0.02250  0.02250
 T, K             1050.00  1060.00  1070.00  1080.00  1090.00  1100.00  1110.00  1120.00
 RHO, KG/CU M    5.1954-4 5.1464-4 5.0983-4 5.0511-4 5.0048-4 4.9593-4 4.9146-4 4.8707-4
 H, KJ/KG         11009.4  11160.1  11311.1  11462.3  11613.6  11765.1  11916.9  12068.8
 U, KJ/KG         6678.64  6788.17  6897.90  7007.80  7117.90  7228.20  7338.69  7449.38
 G, KJ/KG        -92768.8 -93757.7 -94748.2 -95740.1 -96733.4 -97728.1 -98724.2 -99721.6
 S, KJ/(KG)(K)    98.8364  98.9791  99.1208  99.2614  99.4009  99.5393  99.6766  99.8129

 M, (1/n)           2.016    2.016    2.016    2.016    2.016    2.016    2.016    2.016
 (dLV/dLP)t      -1.00000 -1.00000 -1.00000 -1.00000 -1.00000 -1.00000 -1.00000 -1.00000
 (dLV/dLT)p        1.0000   1.0000   1.0000   1.0000   1.0000   1.0000   1.0000   1.0000
 Cp, KJ/(KG)(K)   15.0692  15.0874  15.1060  15.1249  15.1442  15.1637  15.1835  15.2036
 GAMMAs            1.3769   1.3762   1.3756   1.3749   1.3743   1.3736   1.3730   1.3723
 SON VEL,M/SEC     2441.9   2452.9   2463.9   2474.8   2485.6   2496.4   2507.1   2517.8

 TRANSPORT PROPERTIES (GASES ONLY)
   CONDUCTIVITY IN UNITS OF MILLIWATTS/(CM)(K)

 VISC,MILLIPOISE  0.21277  0.21419  0.21560  0.21701  0.21841  0.21980  0.22120  0.22258

  WITH EQUILIBRIUM REACTIONS

 Cp, KJ/(KG)(K)   15.0692  15.0874  15.1060  15.1249  15.1442  15.1637  15.1835  15.2036
 CONDUCTIVITY      4.6143   4.6494   4.6846   4.7199   4.7553   4.7907   4.8262   4.8617
 PRANDTL NUMBER    0.6949   0.6950   0.6952   0.6954   0.6956   0.6957   0.6959   0.6961

  WITH FROZEN REACTIONS

 Cp, KJ/(KG)(K)   15.0691  15.0873  15.1058  15.1247  15.1438  15.1633  15.1830  15.2029
 CONDUCTIVITY      4.6142   4.6493   4.6845   4.7198   4.7551   4.7905   4.8259   4.8614
 PRANDTL NUMBER    0.6949   0.6950   0.6952   0.6954   0.6956   0.6957   0.6959   0.6961

 MOLE FRACTIONS

 *H2              1.00000  1.00000  1.00000  1.00000  1.00000  1.00000  1.00000  1.00000

  * THERMODYNAMIC PROPERTIES FITTED TO 20000.K

 NOTE. WEIGHT FRACTION OF FUEL IN TOTAL FUELS AND OF OXIDANT IN TOTAL OXIDANTS









               THERMODYNAMIC EQUILIBRIUM PROPERTIES AT ASSIGNED

                           TEMPERATURE AND PRESSURE

 CASE =                

             REACTANT                    WT FRACTION      ENERGY      TEMP
                                          (SEE NOTE)     KJ/KG-MOL      K  
             H2                           1.0000000         0.000      0.000

 O/F=    0.00000  %FUEL=100.000000  R,EQ.RATIO= 0.000000  PHI,EQ.RATIO= 0.000000

 THERMODYNAMIC PROPERTIES

 P, BAR           0.02250  0.02250  0.02250  0.02250  0.02250  0.02250  0.02250  0.02500
 T, K             1130.00  1140.00  1150.00  1160.00  1170.00  1180.00  1190.00  1050.00
 RHO, KG/CU M    4.8276-4 4.7853-4 4.7437-4 4.7028-4 4.6626-4 4.6231-4 4.5842-4 5.7727-4
 H, KJ/KG         12220.9  12373.3  12525.8  12678.6  12831.6  12984.7  13138.1  11009.4
 U, KJ/KG         7560.27  7671.37  7782.67  7894.18  8005.90  8117.84  8229.99  6678.64
 G, KJ/KG       -100720.4-101720.6-102722.0-103724.9-104729.0-105734.4-106741.2 -92312.4
 S, KJ/(KG)(K)    99.9481 100.0823 100.2156 100.3478 100.4791 100.6095 100.7389  98.4016

 M, (1/n)           2.016    2.016    2.016    2.016    2.016    2.016    2.016    2.016
 (dLV/dLP)t      -1.00000 -1.00000 -1.00000 -1.00000 -1.00000 -1.00000 -1.00000 -1.00000
 (dLV/dLT)p        1.0000   1.0000   1.0000   1.0000   1.0000   1.0000   1.0000   1.0000
 Cp, KJ/(KG)(K)   15.2239  15.2444  15.2652  15.2861  15.3073  15.3287  15.3503  15.0692
 GAMMAs            1.3716   1.3709   1.3702   1.3695   1.3688   1.3681   1.3674   1.3769
 SON VEL,M/SEC     2528.4   2538.9   2549.4   2559.8   2570.1   2580.4   2590.7   2441.9

 TRANSPORT PROPERTIES (GASES ONLY)
   CONDUCTIVITY IN UNITS OF MILLIWATTS/(CM)(K)

 VISC,MILLIPOISE  0.22396  0.22534  0.22671  0.22808  0.22944  0.23080  0.23215  0.21277

  WITH EQUILIBRIUM REACTIONS

 Cp, KJ/(KG)(K)   15.2239  15.2444  15.2652  15.2861  15.3073  15.3287  15.3503  15.0692
 CONDUCTIVITY      4.8973   4.9329   4.9686   5.0044   5.0402   5.0761   5.1121   4.6142
 PRANDTL NUMBER    0.6962   0.6964   0.6965   0.6967   0.6968   0.6970   0.6971   0.6949

  WITH FROZEN REACTIONS

 Cp, KJ/(KG)(K)   15.2231  15.2435  15.2641  15.2848  15.3057  15.3268  15.3480  15.0691
 CONDUCTIVITY      4.8969   4.9324   4.9680   5.0036   5.0393   5.0750   5.1107   4.6141
 PRANDTL NUMBER    0.6962   0.6964   0.6966   0.6967   0.6969   0.6970   0.6972   0.6949

 MOLE FRACTIONS

 *H2              1.00000  1.00000  1.00000  1.00000  1.00000  1.00000  1.00000  1.00000

  * THERMODYNAMIC PROPERTIES FITTED TO 20000.K

 NOTE. WEIGHT FRACTION OF FUEL IN TOTAL FUELS AND OF OXIDANT IN TOTAL OXIDANTS









               THERMODYNAMIC EQUILIBRIUM PROPERTIES AT ASSIGNED

                           TEMPERATURE AND PRESSURE

 CASE =                

             REACTANT                    WT FRACTION      ENERGY      TEMP
                                          (SEE NOTE)     KJ/KG-MOL      K  
             H2                           1.0000000         0.000      0.000

 O/F=    0.00000  %FUEL=100.000000  R,EQ.RATIO= 0.000000  PHI,EQ.RATIO= 0.000000

 THERMODYNAMIC PROPERTIES

 P, BAR           0.02500  0.02500  0.02500  0.02500  0.02500  0.02500  0.02500  0.02500
 T, K             1060.00  1070.00  1080.00  1090.00  1100.00  1110.00  1120.00  1130.00
 RHO, KG/CU M    5.7183-4 5.6648-4 5.6124-4 5.5609-4 5.5103-4 5.4607-4 5.4119-4 5.3640-4
 H, KJ/KG         11160.1  11311.1  11462.3  11613.6  11765.1  11916.9  12068.8  12220.9
 U, KJ/KG         6788.17  6897.89  7007.80  7117.90  7228.20  7338.69  7449.38  7560.27
 G, KJ/KG        -93297.0 -94283.2 -95270.7 -96259.7 -97250.1 -98241.8 -99234.9-100229.4
 S, KJ/(KG)(K)    98.5445  98.6862  98.8268  98.9663  99.1047  99.2420  99.3783  99.5135

 M, (1/n)           2.016    2.016    2.016    2.016    2.016    2.016    2.016    2.016
 (dLV/dLP)t      -1.00000 -1.00000 -1.00000 -1.00000 -1.00000 -1.00000 -1.00000 -1.00000
 (dLV/dLT)p        1.0000   1.0000   1.0000   1.0000   1.0000   1.0000   1.0000   1.0000
 Cp, KJ/(KG)(K)   15.0874  15.1060  15.1249  15.1441  15.1637  15.1835  15.2035  15.2238
 GAMMAs            1.3762   1.3756   1.3749   1.3743   1.3736   1.3730   1.3723   1.3716
 SON VEL,M/SEC     2452.9   2463.9   2474.8   2485.6   2496.4   2507.1   2517.8   2528.4

 TRANSPORT PROPERTIES (GASES ONLY)
   CONDUCTIVITY IN UNITS OF MILLIWATTS/(CM)(K)

 VISC,MILLIPOISE  0.21419  0.21560  0.21701  0.21841  0.21980  0.22120  0.22258  0.22396

  WITH EQUILIBRIUM REACTIONS

 Cp, KJ/(KG)(K)   15.0874  15.1060  15.1249  15.1441  15.1637  15.1835  15.2035  15.2238
 CONDUCTIVITY      4.6494   4.6846   4.7199   4.7553   4.7907   4.8262   4.8617   4.8973
 PRANDTL NUMBER    0.6950   0.6952   0.6954   0.6956   0.6957   0.6959   0.6961   0.6962

  WITH FROZEN REACTIONS

 Cp, KJ/(KG)(K)   15.0872  15.1058  15.1247  15.1438  15.1633  15.1830  15.2029  15.2231
 CONDUCTIVITY      4.6493   4.6845   4.7198   4.7551   4.7905   4.8259   4.8614   4.8969
 PRANDTL NUMBER    0.6951   0.6952   0.6954   0.6956   0.6957   0.6959   0.6961   0.6962

 MOLE FRACTIONS

 *H2              1.00000  1.00000  1.00000  1.00000  1.00000  1.00000  1.00000  1.00000

  * THERMODYNAMIC PROPERTIES FITTED TO 20000.K

 NOTE. WEIGHT FRACTION OF FUEL IN TOTAL FUELS AND OF OXIDANT IN TOTAL OXIDANTS









               THERMODYNAMIC EQUILIBRIUM PROPERTIES AT ASSIGNED

                           TEMPERATURE AND PRESSURE

 CASE =                

             REACTANT                    WT FRACTION      ENERGY      TEMP
                                          (SEE NOTE)     KJ/KG-MOL      K  
             H2                           1.0000000         0.000      0.000

 O/F=    0.00000  %FUEL=100.000000  R,EQ.RATIO= 0.000000  PHI,EQ.RATIO= 0.000000

 THERMODYNAMIC PROPERTIES

 P, BAR           0.02500  0.02500  0.02500  0.02500  0.02500  0.02500  0.02800  0.02800
 T, K             1140.00  1150.00  1160.00  1170.00  1180.00  1190.00  1050.00  1060.00
 RHO, KG/CU M    5.3170-4 5.2707-4 5.2253-4 5.1806-4 5.1367-4 5.0936-4 6.4654-4 6.4044-4
 H, KJ/KG         12373.3  12525.8  12678.6  12831.6  12984.7  13138.1  11009.4  11160.1
 U, KJ/KG         7671.37  7782.67  7894.18  8005.90  8117.83  8229.98  6678.64  6788.17
 G, KJ/KG       -101225.2-102222.3-103220.8-104220.6-105221.7-106224.1 -91821.6 -92801.6
 S, KJ/(KG)(K)    99.6478  99.7810  99.9132 100.0445 100.1749 100.3044  97.9342  98.0771

 M, (1/n)           2.016    2.016    2.016    2.016    2.016    2.016    2.016    2.016
 (dLV/dLP)t      -1.00000 -1.00000 -1.00000 -1.00000 -1.00000 -1.00000 -1.00000 -1.00000
 (dLV/dLT)p        1.0000   1.0000   1.0000   1.0000   1.0000   1.0000   1.0000   1.0000
 Cp, KJ/(KG)(K)   15.2444  15.2651  15.2861  15.3072  15.3286  15.3501  15.0692  15.0874
 GAMMAs            1.3709   1.3702   1.3695   1.3688   1.3681   1.3674   1.3769   1.3762
 SON VEL,M/SEC     2538.9   2549.4   2559.8   2570.1   2580.4   2590.7   2441.9   2452.9

 TRANSPORT PROPERTIES (GASES ONLY)
   CONDUCTIVITY IN UNITS OF MILLIWATTS/(CM)(K)

 VISC,MILLIPOISE  0.22534  0.22671  0.22808  0.22944  0.23080  0.23215  0.21277  0.21419

  WITH EQUILIBRIUM REACTIONS

 Cp, KJ/(KG)(K)   15.2444  15.2651  15.2861  15.3072  15.3286  15.3501  15.0692  15.0874
 CONDUCTIVITY      4.9329   4.9686   5.0044   5.0402   5.0761   5.1120   4.6142   4.6494
 PRANDTL NUMBER    0.6964   0.6965   0.6967   0.6968   0.6970   0.6971   0.6949   0.6950

  WITH FROZEN REACTIONS

 Cp, KJ/(KG)(K)   15.2435  15.2641  15.2848  15.3057  15.3268  15.3480  15.0691  15.0872
 CONDUCTIVITY      4.9324   4.9680   5.0036   5.0393   5.0750   5.1107   4.6141   4.6493
 PRANDTL NUMBER    0.6964   0.6966   0.6967   0.6969   0.6970   0.6972   0.6949   0.6951

 MOLE FRACTIONS

 *H2              1.00000  1.00000  1.00000  1.00000  1.00000  1.00000  1.00000  1.00000

  * THERMODYNAMIC PROPERTIES FITTED TO 20000.K

 NOTE. WEIGHT FRACTION OF FUEL IN TOTAL FUELS AND OF OXIDANT IN TOTAL OXIDANTS









               THERMODYNAMIC EQUILIBRIUM PROPERTIES AT ASSIGNED

                           TEMPERATURE AND PRESSURE

 CASE =                

             REACTANT                    WT FRACTION      ENERGY      TEMP
                                          (SEE NOTE)     KJ/KG-MOL      K  
             H2                           1.0000000         0.000      0.000

 O/F=    0.00000  %FUEL=100.000000  R,EQ.RATIO= 0.000000  PHI,EQ.RATIO= 0.000000

 THERMODYNAMIC PROPERTIES

 P, BAR           0.02800  0.02800  0.02800  0.02800  0.02800  0.02800  0.02800  0.02800
 T, K             1070.00  1080.00  1090.00  1100.00  1110.00  1120.00  1130.00  1140.00
 RHO, KG/CU M    6.3446-4 6.2858-4 6.2282-4 6.1716-4 6.1160-4 6.0614-4 6.0077-4 5.9550-4
 H, KJ/KG         11311.1  11462.3  11613.6  11765.1  11916.9  12068.8  12220.9  12373.3
 U, KJ/KG         6897.89  7007.80  7117.90  7228.20  7338.69  7449.38  7560.27  7671.36
 G, KJ/KG        -93783.0 -94765.9 -95750.2 -96735.9 -97722.9 -98711.4 -99701.2-100692.3
 S, KJ/(KG)(K)    98.2188  98.3594  98.4989  98.6373  98.7746  98.9109  99.0461  99.1803

 M, (1/n)           2.016    2.016    2.016    2.016    2.016    2.016    2.016    2.016
 (dLV/dLP)t      -1.00000 -1.00000 -1.00000 -1.00000 -1.00000 -1.00000 -1.00000 -1.00000
 (dLV/dLT)p        1.0000   1.0000   1.0000   1.0000   1.0000   1.0000   1.0000   1.0000
 Cp, KJ/(KG)(K)   15.1060  15.1249  15.1441  15.1636  15.1834  15.2035  15.2238  15.2443
 GAMMAs            1.3756   1.3749   1.3743   1.3736   1.3730   1.3723   1.3716   1.3709
 SON VEL,M/SEC     2463.9   2474.8   2485.6   2496.4   2507.1   2517.8   2528.4   2538.9

 TRANSPORT PROPERTIES (GASES ONLY)
   CONDUCTIVITY IN UNITS OF MILLIWATTS/(CM)(K)

 VISC,MILLIPOISE  0.21560  0.21701  0.21841  0.21980  0.22120  0.22258  0.22396  0.22534

  WITH EQUILIBRIUM REACTIONS

 Cp, KJ/(KG)(K)   15.1060  15.1249  15.1441  15.1636  15.1834  15.2035  15.2238  15.2443
 CONDUCTIVITY      4.6846   4.7199   4.7553   4.7907   4.8262   4.8617   4.8972   4.9329
 PRANDTL NUMBER    0.6952   0.6954   0.6956   0.6957   0.6959   0.6961   0.6962   0.6964

  WITH FROZEN REACTIONS

 Cp, KJ/(KG)(K)   15.1058  15.1247  15.1438  15.1633  15.1830  15.2029  15.2231  15.2435
 CONDUCTIVITY      4.6845   4.7198   4.7551   4.7905   4.8259   4.8614   4.8969   4.9324
 PRANDTL NUMBER    0.6952   0.6954   0.6956   0.6957   0.6959   0.6961   0.6962   0.6964

 MOLE FRACTIONS

 *H2              1.00000  1.00000  1.00000  1.00000  1.00000  1.00000  1.00000  1.00000

  * THERMODYNAMIC PROPERTIES FITTED TO 20000.K

 NOTE. WEIGHT FRACTION OF FUEL IN TOTAL FUELS AND OF OXIDANT IN TOTAL OXIDANTS









               THERMODYNAMIC EQUILIBRIUM PROPERTIES AT ASSIGNED

                           TEMPERATURE AND PRESSURE

 CASE =                

             REACTANT                    WT FRACTION      ENERGY      TEMP
                                          (SEE NOTE)     KJ/KG-MOL      K  
             H2                           1.0000000         0.000      0.000

 O/F=    0.00000  %FUEL=100.000000  R,EQ.RATIO= 0.000000  PHI,EQ.RATIO= 0.000000

 THERMODYNAMIC PROPERTIES

 P, BAR           0.02800  0.02800  0.02800  0.02800  0.02800  0.03100  0.03100  0.03100
 T, K             1150.00  1160.00  1170.00  1180.00  1190.00  1050.00  1060.00  1070.00
 RHO, KG/CU M    5.9032-4 5.8523-4 5.8023-4 5.7531-4 5.7048-4 7.1582-4 7.0906-4 7.0244-4
 H, KJ/KG         12525.8  12678.6  12831.5  12984.7  13138.1  11009.4  11160.1  11311.1
 U, KJ/KG         7782.66  7894.17  8005.90  8117.83  8229.98  6678.64  6788.17  6897.89
 G, KJ/KG       -101684.8-102678.6-103673.7-104670.1-105667.8 -91380.8 -92356.6 -93333.8
 S, KJ/(KG)(K)    99.3136  99.4458  99.5771  99.7075  99.8369  97.5144  97.6573  97.7990

 M, (1/n)           2.016    2.016    2.016    2.016    2.016    2.016    2.016    2.016
 (dLV/dLP)t      -1.00000 -1.00000 -1.00000 -1.00000 -1.00000 -1.00000 -1.00000 -1.00000
 (dLV/dLT)p        1.0000   1.0000   1.0000   1.0000   1.0000   1.0000   1.0000   1.0000
 Cp, KJ/(KG)(K)   15.2651  15.2860  15.3072  15.3285  15.3500  15.0692  15.0874  15.1060
 GAMMAs            1.3702   1.3695   1.3688   1.3681   1.3674   1.3769   1.3762   1.3756
 SON VEL,M/SEC     2549.4   2559.8   2570.1   2580.4   2590.7   2441.9   2452.9   2463.9

 TRANSPORT PROPERTIES (GASES ONLY)
   CONDUCTIVITY IN UNITS OF MILLIWATTS/(CM)(K)

 VISC,MILLIPOISE  0.22671  0.22808  0.22944  0.23080  0.23215  0.21277  0.21419  0.21560

  WITH EQUILIBRIUM REACTIONS

 Cp, KJ/(KG)(K)   15.2651  15.2860  15.3072  15.3285  15.3500  15.0692  15.0874  15.1060
 CONDUCTIVITY      4.9686   5.0043   5.0401   5.0760   5.1119   4.6142   4.6494   4.6846
 PRANDTL NUMBER    0.6965   0.6967   0.6968   0.6970   0.6971   0.6949   0.6950   0.6952

  WITH FROZEN REACTIONS

 Cp, KJ/(KG)(K)   15.2641  15.2848  15.3057  15.3268  15.3480  15.0691  15.0872  15.1058
 CONDUCTIVITY      4.9680   5.0036   5.0393   5.0750   5.1107   4.6141   4.6493   4.6845
 PRANDTL NUMBER    0.6966   0.6967   0.6969   0.6970   0.6972   0.6949   0.6951   0.6952

 MOLE FRACTIONS

 *H2              1.00000  1.00000  1.00000  1.00000  1.00000  1.00000  1.00000  1.00000

  * THERMODYNAMIC PROPERTIES FITTED TO 20000.K

 NOTE. WEIGHT FRACTION OF FUEL IN TOTAL FUELS AND OF OXIDANT IN TOTAL OXIDANTS









               THERMODYNAMIC EQUILIBRIUM PROPERTIES AT ASSIGNED

                           TEMPERATURE AND PRESSURE

 CASE =                

             REACTANT                    WT FRACTION      ENERGY      TEMP
                                          (SEE NOTE)     KJ/KG-MOL      K  
             H2                           1.0000000         0.000      0.000

 O/F=    0.00000  %FUEL=100.000000  R,EQ.RATIO= 0.000000  PHI,EQ.RATIO= 0.000000

 THERMODYNAMIC PROPERTIES

 P, BAR           0.03100  0.03100  0.03100  0.03100  0.03100  0.03100  0.03100  0.03100
 T, K             1080.00  1090.00  1100.00  1110.00  1120.00  1130.00  1140.00  1150.00
 RHO, KG/CU M    6.9593-4 6.8955-4 6.8328-4 6.7712-4 6.7108-4 6.6514-4 6.5931-4 6.5357-4
 H, KJ/KG         11462.3  11613.6  11765.1  11916.9  12068.8  12220.9  12373.3  12525.8
 U, KJ/KG         7007.80  7117.90  7228.20  7338.69  7449.38  7560.27  7671.36  7782.66
 G, KJ/KG        -94312.5 -95292.6 -96274.1 -97257.0 -98241.2 -99226.8-100213.7-101202.0
 S, KJ/(KG)(K)    97.9396  98.0791  98.2175  98.3548  98.4911  98.6263  98.7605  98.8938

 M, (1/n)           2.016    2.016    2.016    2.016    2.016    2.016    2.016    2.016
 (dLV/dLP)t      -1.00000 -1.00000 -1.00000 -1.00000 -1.00000 -1.00000 -1.00000 -1.00000
 (dLV/dLT)p        1.0000   1.0000   1.0000   1.0000   1.0000   1.0000   1.0000   1.0000
 Cp, KJ/(KG)(K)   15.1249  15.1441  15.1636  15.1834  15.2035  15.2238  15.2443  15.2650
 GAMMAs            1.3749   1.3743   1.3736   1.3730   1.3723   1.3716   1.3709   1.3702
 SON VEL,M/SEC     2474.8   2485.6   2496.4   2507.1   2517.8   2528.4   2538.9   2549.4

 TRANSPORT PROPERTIES (GASES ONLY)
   CONDUCTIVITY IN UNITS OF MILLIWATTS/(CM)(K)

 VISC,MILLIPOISE  0.21701  0.21841  0.21980  0.22120  0.22258  0.22396  0.22534  0.22671

  WITH EQUILIBRIUM REACTIONS

 Cp, KJ/(KG)(K)   15.1249  15.1441  15.1636  15.1834  15.2035  15.2238  15.2443  15.2650
 CONDUCTIVITY      4.7199   4.7553   4.7907   4.8261   4.8617   4.8972   4.9329   4.9685
 PRANDTL NUMBER    0.6954   0.6956   0.6957   0.6959   0.6961   0.6962   0.6964   0.6965

  WITH FROZEN REACTIONS

 Cp, KJ/(KG)(K)   15.1247  15.1438  15.1633  15.1830  15.2029  15.2231  15.2435  15.2641
 CONDUCTIVITY      4.7198   4.7551   4.7905   4.8259   4.8614   4.8969   4.9324   4.9680
 PRANDTL NUMBER    0.6954   0.6956   0.6957   0.6959   0.6961   0.6962   0.6964   0.6966

 MOLE FRACTIONS

 *H2              1.00000  1.00000  1.00000  1.00000  1.00000  1.00000  1.00000  1.00000

  * THERMODYNAMIC PROPERTIES FITTED TO 20000.K

 NOTE. WEIGHT FRACTION OF FUEL IN TOTAL FUELS AND OF OXIDANT IN TOTAL OXIDANTS









               THERMODYNAMIC EQUILIBRIUM PROPERTIES AT ASSIGNED

                           TEMPERATURE AND PRESSURE

 CASE =                

             REACTANT                    WT FRACTION      ENERGY      TEMP
                                          (SEE NOTE)     KJ/KG-MOL      K  
             H2                           1.0000000         0.000      0.000

 O/F=    0.00000  %FUEL=100.000000  R,EQ.RATIO= 0.000000  PHI,EQ.RATIO= 0.000000

 THERMODYNAMIC PROPERTIES

 P, BAR           0.03100  0.03100  0.03100  0.03100  0.03500  0.03500  0.03500  0.03500
 T, K             1160.00  1170.00  1180.00  1190.00  1050.00  1060.00  1070.00  1080.00
 RHO, KG/CU M    6.4794-4 6.4240-4 6.3696-4 6.3160-4 8.0818-4 8.0056-4 7.9307-4 7.8573-4
 H, KJ/KG         12678.6  12831.5  12984.7  13138.1  11009.4  11160.1  11311.1  11462.3
 U, KJ/KG         7894.17  8005.89  8117.82  8229.97  6678.63  6788.17  6897.89  7007.80
 G, KJ/KG       -102191.6-103182.5-104174.7-105168.3 -90855.2 -91826.0 -92798.3 -93771.9
 S, KJ/(KG)(K)    99.0260  99.1573  99.2877  99.4171  97.0139  97.1567  97.2985  97.4391

 M, (1/n)           2.016    2.016    2.016    2.016    2.016    2.016    2.016    2.016
 (dLV/dLP)t      -1.00000 -1.00000 -1.00000 -1.00000 -1.00000 -1.00000 -1.00000 -1.00000
 (dLV/dLT)p        1.0000   1.0000   1.0000   1.0000   1.0000   1.0000   1.0000   1.0000
 Cp, KJ/(KG)(K)   15.2859  15.3071  15.3284  15.3499  15.0692  15.0874  15.1060  15.1249
 GAMMAs            1.3695   1.3688   1.3681   1.3674   1.3769   1.3762   1.3756   1.3749
 SON VEL,M/SEC     2559.8   2570.1   2580.4   2590.7   2441.9   2452.9   2463.9   2474.8

 TRANSPORT PROPERTIES (GASES ONLY)
   CONDUCTIVITY IN UNITS OF MILLIWATTS/(CM)(K)

 VISC,MILLIPOISE  0.22808  0.22944  0.23080  0.23215  0.21277  0.21419  0.21560  0.21701

  WITH EQUILIBRIUM REACTIONS

 Cp, KJ/(KG)(K)   15.2859  15.3071  15.3284  15.3499  15.0692  15.0874  15.1060  15.1249
 CONDUCTIVITY      5.0043   5.0401   5.0759   5.1119   4.6142   4.6494   4.6846   4.7199
 PRANDTL NUMBER    0.6967   0.6968   0.6970   0.6971   0.6949   0.6950   0.6952   0.6954

  WITH FROZEN REACTIONS

 Cp, KJ/(KG)(K)   15.2848  15.3057  15.3268  15.3480  15.0691  15.0872  15.1058  15.1247
 CONDUCTIVITY      5.0036   5.0393   5.0750   5.1107   4.6141   4.6493   4.6845   4.7198
 PRANDTL NUMBER    0.6967   0.6969   0.6970   0.6972   0.6949   0.6951   0.6952   0.6954

 MOLE FRACTIONS

 *H2              1.00000  1.00000  1.00000  1.00000  1.00000  1.00000  1.00000  1.00000

  * THERMODYNAMIC PROPERTIES FITTED TO 20000.K

 NOTE. WEIGHT FRACTION OF FUEL IN TOTAL FUELS AND OF OXIDANT IN TOTAL OXIDANTS









               THERMODYNAMIC EQUILIBRIUM PROPERTIES AT ASSIGNED

                           TEMPERATURE AND PRESSURE

 CASE =                

             REACTANT                    WT FRACTION      ENERGY      TEMP
                                          (SEE NOTE)     KJ/KG-MOL      K  
             H2                           1.0000000         0.000      0.000

 O/F=    0.00000  %FUEL=100.000000  R,EQ.RATIO= 0.000000  PHI,EQ.RATIO= 0.000000

 THERMODYNAMIC PROPERTIES

 P, BAR           0.03500  0.03500  0.03500  0.03500  0.03500  0.03500  0.03500  0.03500
 T, K             1090.00  1100.00  1110.00  1120.00  1130.00  1140.00  1150.00  1160.00
 RHO, KG/CU M    7.7852-4 7.7145-4 7.6450-4 7.5767-4 7.5096-4 7.4438-4 7.3790-4 7.3154-4
 H, KJ/KG         11613.6  11765.1  11916.9  12068.8  12220.9  12373.3  12525.8  12678.6
 U, KJ/KG         7117.90  7228.20  7338.68  7449.37  7560.26  7671.36  7782.66  7894.17
 G, KJ/KG        -94747.0 -95723.5 -96701.4 -97680.6 -98661.2 -99643.1-100626.4-101610.9
 S, KJ/(KG)(K)    97.5785  97.7169  97.8543  97.9905  98.1257  98.2600  98.3932  98.5255

 M, (1/n)           2.016    2.016    2.016    2.016    2.016    2.016    2.016    2.016
 (dLV/dLP)t      -1.00000 -1.00000 -1.00000 -1.00000 -1.00000 -1.00000 -1.00000 -1.00000
 (dLV/dLT)p        1.0000   1.0000   1.0000   1.0000   1.0000   1.0000   1.0000   1.0000
 Cp, KJ/(KG)(K)   15.1441  15.1636  15.1834  15.2034  15.2237  15.2442  15.2650  15.2859
 GAMMAs            1.3743   1.3736   1.3730   1.3723   1.3716   1.3709   1.3702   1.3695
 SON VEL,M/SEC     2485.6   2496.4   2507.1   2517.8   2528.4   2538.9   2549.4   2559.8

 TRANSPORT PROPERTIES (GASES ONLY)
   CONDUCTIVITY IN UNITS OF MILLIWATTS/(CM)(K)

 VISC,MILLIPOISE  0.21841  0.21980  0.22120  0.22258  0.22396  0.22534  0.22671  0.22808

  WITH EQUILIBRIUM REACTIONS

 Cp, KJ/(KG)(K)   15.1441  15.1636  15.1834  15.2034  15.2237  15.2442  15.2650  15.2859
 CONDUCTIVITY      4.7553   4.7907   4.8261   4.8616   4.8972   4.9328   4.9685   5.0042
 PRANDTL NUMBER    0.6956   0.6957   0.6959   0.6961   0.6962   0.6964   0.6965   0.6967

  WITH FROZEN REACTIONS

 Cp, KJ/(KG)(K)   15.1438  15.1633  15.1830  15.2029  15.2231  15.2435  15.2641  15.2848
 CONDUCTIVITY      4.7551   4.7905   4.8259   4.8614   4.8969   4.9324   4.9680   5.0036
 PRANDTL NUMBER    0.6956   0.6957   0.6959   0.6961   0.6962   0.6964   0.6966   0.6967

 MOLE FRACTIONS

 *H2              1.00000  1.00000  1.00000  1.00000  1.00000  1.00000  1.00000  1.00000

  * THERMODYNAMIC PROPERTIES FITTED TO 20000.K

 NOTE. WEIGHT FRACTION OF FUEL IN TOTAL FUELS AND OF OXIDANT IN TOTAL OXIDANTS









               THERMODYNAMIC EQUILIBRIUM PROPERTIES AT ASSIGNED

                           TEMPERATURE AND PRESSURE

 CASE =                

             REACTANT                    WT FRACTION      ENERGY      TEMP
                                          (SEE NOTE)     KJ/KG-MOL      K  
             H2                           1.0000000         0.000      0.000

 O/F=    0.00000  %FUEL=100.000000  R,EQ.RATIO= 0.000000  PHI,EQ.RATIO= 0.000000

 THERMODYNAMIC PROPERTIES

 P, BAR           0.03500  0.03500  0.03500  0.03900  0.03900  0.03900  0.03900  0.03900
 T, K             1170.00  1180.00  1190.00  1050.00  1060.00  1070.00  1080.00  1090.00
 RHO, KG/CU M    7.2529-4 7.1914-4 7.1310-4 9.0054-4 8.9205-4 8.8371-4 8.7553-4 8.6750-4
 H, KJ/KG         12831.5  12984.7  13138.1  11009.4  11160.1  11311.1  11462.3  11613.6
 U, KJ/KG         8005.89  8117.82  8229.96  6678.63  6788.17  6897.89  7007.80  7117.90
 G, KJ/KG       -102596.9-103584.1-104572.6 -90386.6 -91352.9 -92320.7 -93289.9 -94260.5
 S, KJ/(KG)(K)    98.6568  98.7871  98.9166  96.5675  96.7104  96.8521  96.9927  97.1322

 M, (1/n)           2.016    2.016    2.016    2.016    2.016    2.016    2.016    2.016
 (dLV/dLP)t      -1.00000 -1.00000 -1.00000 -1.00000 -1.00000 -1.00000 -1.00000 -1.00000
 (dLV/dLT)p        1.0000   1.0000   1.0000   1.0000   1.0000   1.0000   1.0000   1.0000
 Cp, KJ/(KG)(K)   15.3070  15.3283  15.3498  15.0692  15.0874  15.1060  15.1249  15.1441
 GAMMAs            1.3688   1.3681   1.3674   1.3769   1.3762   1.3756   1.3749   1.3743
 SON VEL,M/SEC     2570.1   2580.4   2590.7   2441.9   2452.9   2463.9   2474.8   2485.6

 TRANSPORT PROPERTIES (GASES ONLY)
   CONDUCTIVITY IN UNITS OF MILLIWATTS/(CM)(K)

 VISC,MILLIPOISE  0.22944  0.23080  0.23215  0.21277  0.21419  0.21560  0.21701  0.21841

  WITH EQUILIBRIUM REACTIONS

 Cp, KJ/(KG)(K)   15.3070  15.3283  15.3498  15.0692  15.0874  15.1060  15.1249  15.1441
 CONDUCTIVITY      5.0400   5.0759   5.1118   4.6142   4.6494   4.6846   4.7199   4.7553
 PRANDTL NUMBER    0.6968   0.6970   0.6971   0.6949   0.6950   0.6952   0.6954   0.6956

  WITH FROZEN REACTIONS

 Cp, KJ/(KG)(K)   15.3057  15.3268  15.3480  15.0691  15.0872  15.1058  15.1247  15.1438
 CONDUCTIVITY      5.0393   5.0750   5.1107   4.6141   4.6493   4.6845   4.7198   4.7551
 PRANDTL NUMBER    0.6969   0.6970   0.6972   0.6949   0.6951   0.6952   0.6954   0.6956

 MOLE FRACTIONS

 *H2              1.00000  1.00000  1.00000  1.00000  1.00000  1.00000  1.00000  1.00000

  * THERMODYNAMIC PROPERTIES FITTED TO 20000.K

 NOTE. WEIGHT FRACTION OF FUEL IN TOTAL FUELS AND OF OXIDANT IN TOTAL OXIDANTS









               THERMODYNAMIC EQUILIBRIUM PROPERTIES AT ASSIGNED

                           TEMPERATURE AND PRESSURE

 CASE =                

             REACTANT                    WT FRACTION      ENERGY      TEMP
                                          (SEE NOTE)     KJ/KG-MOL      K  
             H2                           1.0000000         0.000      0.000

 O/F=    0.00000  %FUEL=100.000000  R,EQ.RATIO= 0.000000  PHI,EQ.RATIO= 0.000000

 THERMODYNAMIC PROPERTIES

 P, BAR           0.03900  0.03900  0.03900  0.03900  0.03900  0.03900  0.03900  0.03900
 T, K             1100.00  1110.00  1120.00  1130.00  1140.00  1150.00  1160.00  1170.00
 RHO, KG/CU M    8.5961-4 8.5187-4 8.4426-4 8.3679-4 8.2945-4 8.2224-4 8.1515-4 8.0818-4
 H, KJ/KG         11765.1  11916.9  12068.8  12220.9  12373.3  12525.8  12678.6  12831.5
 U, KJ/KG         7228.19  7338.68  7449.37  7560.26  7671.36  7782.66  7894.17  8005.88
 G, KJ/KG        -95232.5 -96205.9 -97180.7 -98156.8 -99134.3-100113.1-101093.2-102074.7
 S, KJ/(KG)(K)    97.2706  97.4079  97.5442  97.6794  97.8136  97.9469  98.0791  98.2104

 M, (1/n)           2.016    2.016    2.016    2.016    2.016    2.016    2.016    2.016
 (dLV/dLP)t      -1.00000 -1.00000 -1.00000 -1.00000 -1.00000 -1.00000 -1.00000 -1.00000
 (dLV/dLT)p        1.0000   1.0000   1.0000   1.0000   1.0000   1.0000   1.0000   1.0000
 Cp, KJ/(KG)(K)   15.1636  15.1834  15.2034  15.2237  15.2442  15.2649  15.2858  15.3069
 GAMMAs            1.3736   1.3730   1.3723   1.3716   1.3709   1.3702   1.3695   1.3689
 SON VEL,M/SEC     2496.4   2507.1   2517.8   2528.4   2538.9   2549.4   2559.8   2570.1

 TRANSPORT PROPERTIES (GASES ONLY)
   CONDUCTIVITY IN UNITS OF MILLIWATTS/(CM)(K)

 VISC,MILLIPOISE  0.21980  0.22120  0.22258  0.22396  0.22534  0.22671  0.22808  0.22944

  WITH EQUILIBRIUM REACTIONS

 Cp, KJ/(KG)(K)   15.1636  15.1834  15.2034  15.2237  15.2442  15.2649  15.2858  15.3069
 CONDUCTIVITY      4.7907   4.8261   4.8616   4.8972   4.9328   4.9685   5.0042   5.0400
 PRANDTL NUMBER    0.6957   0.6959   0.6961   0.6962   0.6964   0.6965   0.6967   0.6968

  WITH FROZEN REACTIONS

 Cp, KJ/(KG)(K)   15.1633  15.1830  15.2029  15.2231  15.2435  15.2641  15.2848  15.3057
 CONDUCTIVITY      4.7905   4.8259   4.8614   4.8969   4.9324   4.9680   5.0036   5.0393
 PRANDTL NUMBER    0.6957   0.6959   0.6961   0.6962   0.6964   0.6966   0.6967   0.6969

 MOLE FRACTIONS

 *H2              1.00000  1.00000  1.00000  1.00000  1.00000  1.00000  1.00000  1.00000

  * THERMODYNAMIC PROPERTIES FITTED TO 20000.K

 NOTE. WEIGHT FRACTION OF FUEL IN TOTAL FUELS AND OF OXIDANT IN TOTAL OXIDANTS









               THERMODYNAMIC EQUILIBRIUM PROPERTIES AT ASSIGNED

                           TEMPERATURE AND PRESSURE

 CASE =                

             REACTANT                    WT FRACTION      ENERGY      TEMP
                                          (SEE NOTE)     KJ/KG-MOL      K  
             H2                           1.0000000         0.000      0.000

 O/F=    0.00000  %FUEL=100.000000  R,EQ.RATIO= 0.000000  PHI,EQ.RATIO= 0.000000

 THERMODYNAMIC PROPERTIES

 P, BAR           0.03900  0.03900  0.04400  0.04400  0.04400  0.04400  0.04400  0.04400
 T, K             1180.00  1190.00  1050.00  1060.00  1070.00  1080.00  1090.00  1100.00
 RHO, KG/CU M    8.0133-4 7.9460-4 1.0160-3 1.0064-3 9.9701-4 9.8778-4 9.7871-4 9.6982-4
 H, KJ/KG         12984.7  13138.1  11009.4  11160.1  11311.1  11462.3  11613.6  11765.1
 U, KJ/KG         8117.81  8229.96  6678.63  6788.17  6897.89  7007.80  7117.90  7228.19
 G, KJ/KG       -103057.4-104041.5 -89864.1 -90825.5 -91788.3 -92752.6 -93718.2 -94685.3
 S, KJ/(KG)(K)    98.3408  98.4702  96.0700  96.2129  96.3546  96.4952  96.6347  96.7731

 M, (1/n)           2.016    2.016    2.016    2.016    2.016    2.016    2.016    2.016
 (dLV/dLP)t      -1.00000 -1.00000 -1.00000 -1.00000 -1.00000 -1.00000 -1.00000 -1.00000
 (dLV/dLT)p        1.0000   1.0000   1.0000   1.0000   1.0000   1.0000   1.0000   1.0000
 Cp, KJ/(KG)(K)   15.3282  15.3497  15.0692  15.0874  15.1059  15.1249  15.1441  15.1636
 GAMMAs            1.3682   1.3674   1.3769   1.3762   1.3756   1.3749   1.3743   1.3736
 SON VEL,M/SEC     2580.4   2590.7   2441.9   2452.9   2463.9   2474.8   2485.6   2496.4

 TRANSPORT PROPERTIES (GASES ONLY)
   CONDUCTIVITY IN UNITS OF MILLIWATTS/(CM)(K)

 VISC,MILLIPOISE  0.23080  0.23215  0.21277  0.21419  0.21560  0.21701  0.21841  0.21980

  WITH EQUILIBRIUM REACTIONS

 Cp, KJ/(KG)(K)   15.3282  15.3497  15.0692  15.0874  15.1059  15.1249  15.1441  15.1636
 CONDUCTIVITY      5.0758   5.1118   4.6142   4.6494   4.6846   4.7199   4.7552   4.7906
 PRANDTL NUMBER    0.6970   0.6971   0.6949   0.6950   0.6952   0.6954   0.6956   0.6957

  WITH FROZEN REACTIONS

 Cp, KJ/(KG)(K)   15.3268  15.3480  15.0691  15.0872  15.1058  15.1247  15.1438  15.1633
 CONDUCTIVITY      5.0750   5.1107   4.6141   4.6493   4.6845   4.7198   4.7551   4.7905
 PRANDTL NUMBER    0.6970   0.6972   0.6949   0.6951   0.6952   0.6954   0.6956   0.6957

 MOLE FRACTIONS

 *H2              1.00000  1.00000  1.00000  1.00000  1.00000  1.00000  1.00000  1.00000

  * THERMODYNAMIC PROPERTIES FITTED TO 20000.K

 NOTE. WEIGHT FRACTION OF FUEL IN TOTAL FUELS AND OF OXIDANT IN TOTAL OXIDANTS









               THERMODYNAMIC EQUILIBRIUM PROPERTIES AT ASSIGNED

                           TEMPERATURE AND PRESSURE

 CASE =                

             REACTANT                    WT FRACTION      ENERGY      TEMP
                                          (SEE NOTE)     KJ/KG-MOL      K  
             H2                           1.0000000         0.000      0.000

 O/F=    0.00000  %FUEL=100.000000  R,EQ.RATIO= 0.000000  PHI,EQ.RATIO= 0.000000

 THERMODYNAMIC PROPERTIES

 P, BAR           0.04400  0.04400  0.04400  0.04400  0.04400  0.04400  0.04400  0.04400
 T, K             1110.00  1120.00  1130.00  1140.00  1150.00  1160.00  1170.00  1180.00
 RHO, KG/CU M    9.6108-4 9.5250-4 9.4407-4 9.3579-4 9.2765-4 9.1965-4 9.1179-4 9.0407-4
 H, KJ/KG         11916.9  12068.8  12220.9  12373.3  12525.8  12678.6  12831.5  12984.7
 U, KJ/KG         7338.68  7449.37  7560.26  7671.36  7782.65  7894.16  8005.88  8117.81
 G, KJ/KG        -95653.7 -96623.5 -97594.6 -98567.1 -99540.9-100516.1-101492.5-102470.3
 S, KJ/(KG)(K)    96.9104  97.0467  97.1819  97.3161  97.4493  97.5816  97.7129  97.8433

 M, (1/n)           2.016    2.016    2.016    2.016    2.016    2.016    2.016    2.016
 (dLV/dLP)t      -1.00000 -1.00000 -1.00000 -1.00000 -1.00000 -1.00000 -1.00000 -1.00000
 (dLV/dLT)p        1.0000   1.0000   1.0000   1.0000   1.0000   1.0000   1.0000   1.0000
 Cp, KJ/(KG)(K)   15.1833  15.2034  15.2236  15.2441  15.2649  15.2858  15.3069  15.3282
 GAMMAs            1.3730   1.3723   1.3716   1.3709   1.3702   1.3695   1.3689   1.3682
 SON VEL,M/SEC     2507.1   2517.8   2528.4   2538.9   2549.4   2559.8   2570.1   2580.4

 TRANSPORT PROPERTIES (GASES ONLY)
   CONDUCTIVITY IN UNITS OF MILLIWATTS/(CM)(K)

 VISC,MILLIPOISE  0.22120  0.22258  0.22396  0.22534  0.22671  0.22808  0.22944  0.23080

  WITH EQUILIBRIUM REACTIONS

 Cp, KJ/(KG)(K)   15.1833  15.2034  15.2236  15.2441  15.2649  15.2858  15.3069  15.3282
 CONDUCTIVITY      4.8261   4.8616   4.8972   4.9328   4.9684   5.0042   5.0399   5.0758
 PRANDTL NUMBER    0.6959   0.6961   0.6962   0.6964   0.6965   0.6967   0.6968   0.6970

  WITH FROZEN REACTIONS

 Cp, KJ/(KG)(K)   15.1830  15.2029  15.2231  15.2435  15.2641  15.2848  15.3057  15.3268
 CONDUCTIVITY      4.8259   4.8614   4.8969   4.9324   4.9680   5.0036   5.0393   5.0750
 PRANDTL NUMBER    0.6959   0.6961   0.6962   0.6964   0.6966   0.6967   0.6969   0.6970

 MOLE FRACTIONS

 *H2              1.00000  1.00000  1.00000  1.00000  1.00000  1.00000  1.00000  1.00000

  * THERMODYNAMIC PROPERTIES FITTED TO 20000.K

 NOTE. WEIGHT FRACTION OF FUEL IN TOTAL FUELS AND OF OXIDANT IN TOTAL OXIDANTS









               THERMODYNAMIC EQUILIBRIUM PROPERTIES AT ASSIGNED

                           TEMPERATURE AND PRESSURE

 CASE =                

             REACTANT                    WT FRACTION      ENERGY      TEMP
                                          (SEE NOTE)     KJ/KG-MOL      K  
             H2                           1.0000000         0.000      0.000

 O/F=    0.00000  %FUEL=100.000000  R,EQ.RATIO= 0.000000  PHI,EQ.RATIO= 0.000000

 THERMODYNAMIC PROPERTIES

 P, BAR           0.04400  0.04900  0.04900  0.04900  0.04900  0.04900  0.04900  0.04900
 T, K             1190.00  1050.00  1060.00  1070.00  1080.00  1090.00  1100.00  1110.00
 RHO, KG/CU M    8.9647-4 1.1315-3 1.1208-3 1.1103-3 1.1000-3 1.0899-3 1.0800-3 1.0703-3
 H, KJ/KG         13138.1  11009.4  11160.1  11311.1  11462.3  11613.6  11765.1  11916.9
 U, KJ/KG         8229.95  6678.63  6788.17  6897.89  7007.80  7117.90  7228.19  7338.68
 G, KJ/KG       -103449.4 -89398.0 -90354.9 -91313.3 -92273.1 -93234.3 -94196.9 -95160.9
 S, KJ/(KG)(K)    97.9727  95.6261  95.7689  95.9107  96.0513  96.1908  96.3292  96.4665

 M, (1/n)           2.016    2.016    2.016    2.016    2.016    2.016    2.016    2.016
 (dLV/dLP)t      -1.00000 -1.00000 -1.00000 -1.00000 -1.00000 -1.00000 -1.00000 -1.00000
 (dLV/dLT)p        1.0000   1.0000   1.0000   1.0000   1.0000   1.0000   1.0000   1.0000
 Cp, KJ/(KG)(K)   15.3496  15.0692  15.0874  15.1059  15.1248  15.1441  15.1636  15.1833
 GAMMAs            1.3675   1.3769   1.3762   1.3756   1.3750   1.3743   1.3736   1.3730
 SON VEL,M/SEC     2590.7   2441.9   2452.9   2463.9   2474.8   2485.6   2496.4   2507.1

 TRANSPORT PROPERTIES (GASES ONLY)
   CONDUCTIVITY IN UNITS OF MILLIWATTS/(CM)(K)

 VISC,MILLIPOISE  0.23215  0.21277  0.21419  0.21560  0.21701  0.21841  0.21980  0.22120

  WITH EQUILIBRIUM REACTIONS

 Cp, KJ/(KG)(K)   15.3496  15.0692  15.0874  15.1059  15.1248  15.1441  15.1636  15.1833
 CONDUCTIVITY      5.1117   4.6142   4.6494   4.6846   4.7199   4.7552   4.7906   4.8261
 PRANDTL NUMBER    0.6971   0.6949   0.6950   0.6952   0.6954   0.6956   0.6957   0.6959

  WITH FROZEN REACTIONS

 Cp, KJ/(KG)(K)   15.3480  15.0691  15.0872  15.1058  15.1247  15.1438  15.1633  15.1830
 CONDUCTIVITY      5.1107   4.6141   4.6493   4.6845   4.7198   4.7551   4.7905   4.8259
 PRANDTL NUMBER    0.6972   0.6949   0.6951   0.6952   0.6954   0.6956   0.6957   0.6959

 MOLE FRACTIONS

 *H2              1.00000  1.00000  1.00000  1.00000  1.00000  1.00000  1.00000  1.00000

  * THERMODYNAMIC PROPERTIES FITTED TO 20000.K

 NOTE. WEIGHT FRACTION OF FUEL IN TOTAL FUELS AND OF OXIDANT IN TOTAL OXIDANTS









               THERMODYNAMIC EQUILIBRIUM PROPERTIES AT ASSIGNED

                           TEMPERATURE AND PRESSURE

 CASE =                

             REACTANT                    WT FRACTION      ENERGY      TEMP
                                          (SEE NOTE)     KJ/KG-MOL      K  
             H2                           1.0000000         0.000      0.000

 O/F=    0.00000  %FUEL=100.000000  R,EQ.RATIO= 0.000000  PHI,EQ.RATIO= 0.000000

 THERMODYNAMIC PROPERTIES

 P, BAR           0.04900  0.04900  0.04900  0.04900  0.04900  0.04900  0.04900  0.04900
 T, K             1120.00  1130.00  1140.00  1150.00  1160.00  1170.00  1180.00  1190.00
 RHO, KG/CU M    1.0607-3 1.0514-3 1.0421-3 1.0331-3 1.0242-3 1.0154-3 1.0068-3 9.9834-4
 H, KJ/KG         12068.8  12220.9  12373.3  12525.8  12678.6  12831.5  12984.7  13138.1
 U, KJ/KG         7449.37  7560.26  7671.35  7782.65  7894.16  8005.88  8117.81  8229.95
 G, KJ/KG        -96126.3 -97093.0 -98061.0 -99030.4-100001.1-100973.2-101946.5-102921.1
 S, KJ/(KG)(K)    96.6027  96.7380  96.8722  97.0054  97.1377  97.2690  97.3993  97.5288

 M, (1/n)           2.016    2.016    2.016    2.016    2.016    2.016    2.016    2.016
 (dLV/dLP)t      -1.00000 -1.00000 -1.00000 -1.00000 -1.00000 -1.00000 -1.00000 -1.00000
 (dLV/dLT)p        1.0000   1.0000   1.0000   1.0000   1.0000   1.0000   1.0000   1.0000
 Cp, KJ/(KG)(K)   15.2034  15.2236  15.2441  15.2648  15.2857  15.3068  15.3281  15.3495
 GAMMAs            1.3723   1.3716   1.3709   1.3702   1.3695   1.3689   1.3682   1.3675
 SON VEL,M/SEC     2517.8   2528.4   2538.9   2549.4   2559.8   2570.1   2580.4   2590.7

 TRANSPORT PROPERTIES (GASES ONLY)
   CONDUCTIVITY IN UNITS OF MILLIWATTS/(CM)(K)

 VISC,MILLIPOISE  0.22258  0.22396  0.22534  0.22671  0.22808  0.22944  0.23080  0.23215

  WITH EQUILIBRIUM REACTIONS

 Cp, KJ/(KG)(K)   15.2034  15.2236  15.2441  15.2648  15.2857  15.3068  15.3281  15.3495
 CONDUCTIVITY      4.8616   4.8972   4.9328   4.9684   5.0041   5.0399   5.0757   5.1116
 PRANDTL NUMBER    0.6961   0.6962   0.6964   0.6965   0.6967   0.6968   0.6970   0.6971

  WITH FROZEN REACTIONS

 Cp, KJ/(KG)(K)   15.2029  15.2231  15.2435  15.2641  15.2848  15.3057  15.3268  15.3480
 CONDUCTIVITY      4.8614   4.8969   4.9324   4.9680   5.0036   5.0393   5.0750   5.1107
 PRANDTL NUMBER    0.6961   0.6962   0.6964   0.6966   0.6967   0.6969   0.6970   0.6972

 MOLE FRACTIONS

 *H2              1.00000  1.00000  1.00000  1.00000  1.00000  1.00000  1.00000  1.00000

  * THERMODYNAMIC PROPERTIES FITTED TO 20000.K

 NOTE. WEIGHT FRACTION OF FUEL IN TOTAL FUELS AND OF OXIDANT IN TOTAL OXIDANTS









               THERMODYNAMIC EQUILIBRIUM PROPERTIES AT ASSIGNED

                           TEMPERATURE AND PRESSURE

 CASE =                

             REACTANT                    WT FRACTION      ENERGY      TEMP
                                          (SEE NOTE)     KJ/KG-MOL      K  
             H2                           1.0000000         0.000      0.000

 O/F=    0.00000  %FUEL=100.000000  R,EQ.RATIO= 0.000000  PHI,EQ.RATIO= 0.000000

 THERMODYNAMIC PROPERTIES

 P, BAR           0.05400  0.05400  0.05400  0.05400  0.05400  0.05400  0.05400  0.05400
 T, K             1050.00  1060.00  1070.00  1080.00  1090.00  1100.00  1110.00  1120.00
 RHO, KG/CU M    1.2469-3 1.2351-3 1.2236-3 1.2123-3 1.2011-3 1.1902-3 1.1795-3 1.1690-3
 H, KJ/KG         11009.4  11160.1  11311.1  11462.2  11613.6  11765.1  11916.9  12068.8
 U, KJ/KG         6678.63  6788.17  6897.89  7007.80  7117.90  7228.19  7338.68  7449.37
 G, KJ/KG        -88977.2 -89930.2 -90884.5 -91840.3 -92797.5 -93756.1 -94716.1 -95677.4
 S, KJ/(KG)(K)    95.2253  95.3682  95.5099  95.6505  95.7900  95.9284  96.0657  96.2020

 M, (1/n)           2.016    2.016    2.016    2.016    2.016    2.016    2.016    2.016
 (dLV/dLP)t      -1.00000 -1.00000 -1.00000 -1.00000 -1.00000 -1.00000 -1.00000 -1.00000
 (dLV/dLT)p        1.0000   1.0000   1.0000   1.0000   1.0000   1.0000   1.0000   1.0000
 Cp, KJ/(KG)(K)   15.0691  15.0874  15.1059  15.1248  15.1440  15.1635  15.1833  15.2033
 GAMMAs            1.3769   1.3762   1.3756   1.3750   1.3743   1.3736   1.3730   1.3723
 SON VEL,M/SEC     2441.9   2452.9   2463.9   2474.8   2485.6   2496.4   2507.1   2517.8

 TRANSPORT PROPERTIES (GASES ONLY)
   CONDUCTIVITY IN UNITS OF MILLIWATTS/(CM)(K)

 VISC,MILLIPOISE  0.21277  0.21419  0.21560  0.21701  0.21841  0.21980  0.22120  0.22258

  WITH EQUILIBRIUM REACTIONS

 Cp, KJ/(KG)(K)   15.0691  15.0874  15.1059  15.1248  15.1440  15.1635  15.1833  15.2033
 CONDUCTIVITY      4.6142   4.6494   4.6846   4.7199   4.7552   4.7906   4.8261   4.8616
 PRANDTL NUMBER    0.6949   0.6950   0.6952   0.6954   0.6956   0.6957   0.6959   0.6961

  WITH FROZEN REACTIONS

 Cp, KJ/(KG)(K)   15.0691  15.0872  15.1058  15.1247  15.1438  15.1633  15.1830  15.2029
 CONDUCTIVITY      4.6141   4.6493   4.6845   4.7198   4.7551   4.7905   4.8259   4.8614
 PRANDTL NUMBER    0.6949   0.6951   0.6952   0.6954   0.6956   0.6957   0.6959   0.6961

 MOLE FRACTIONS

 *H2              1.00000  1.00000  1.00000  1.00000  1.00000  1.00000  1.00000  1.00000

  * THERMODYNAMIC PROPERTIES FITTED TO 20000.K

 NOTE. WEIGHT FRACTION OF FUEL IN TOTAL FUELS AND OF OXIDANT IN TOTAL OXIDANTS









               THERMODYNAMIC EQUILIBRIUM PROPERTIES AT ASSIGNED

                           TEMPERATURE AND PRESSURE

 CASE =                

             REACTANT                    WT FRACTION      ENERGY      TEMP
                                          (SEE NOTE)     KJ/KG-MOL      K  
             H2                           1.0000000         0.000      0.000

 O/F=    0.00000  %FUEL=100.000000  R,EQ.RATIO= 0.000000  PHI,EQ.RATIO= 0.000000

 THERMODYNAMIC PROPERTIES

 P, BAR           0.05400  0.05400  0.05400  0.05400  0.05400  0.05400  0.05400  0.06000
 T, K             1130.00  1140.00  1150.00  1160.00  1170.00  1180.00  1190.00  1050.00
 RHO, KG/CU M    1.1586-3 1.1485-3 1.1385-3 1.1287-3 1.1190-3 1.1095-3 1.1002-3 1.3855-3
 H, KJ/KG         12220.9  12373.3  12525.8  12678.6  12831.5  12984.7  13138.1  11009.4
 U, KJ/KG         7560.26  7671.35  7782.65  7894.16  8005.88  8117.80  8229.95  6678.63
 G, KJ/KG        -96640.1 -97604.2 -98569.5 -99536.2-100504.3-101473.6-102444.2 -88521.0
 S, KJ/(KG)(K)    96.3372  96.4714  96.6047  96.7369  96.8682  96.9986  97.1280  94.7908

 M, (1/n)           2.016    2.016    2.016    2.016    2.016    2.016    2.016    2.016
 (dLV/dLP)t      -1.00000 -1.00000 -1.00000 -1.00000 -1.00000 -1.00000 -1.00000 -1.00000
 (dLV/dLT)p        1.0000   1.0000   1.0000   1.0000   1.0000   1.0000   1.0000   1.0000
 Cp, KJ/(KG)(K)   15.2236  15.2441  15.2648  15.2857  15.3068  15.3280  15.3495  15.0691
 GAMMAs            1.3716   1.3709   1.3702   1.3696   1.3689   1.3682   1.3675   1.3769
 SON VEL,M/SEC     2528.4   2538.9   2549.4   2559.8   2570.1   2580.4   2590.7   2441.9

 TRANSPORT PROPERTIES (GASES ONLY)
   CONDUCTIVITY IN UNITS OF MILLIWATTS/(CM)(K)

 VISC,MILLIPOISE  0.22396  0.22534  0.22671  0.22808  0.22944  0.23080  0.23215  0.21277

  WITH EQUILIBRIUM REACTIONS

 Cp, KJ/(KG)(K)   15.2236  15.2441  15.2648  15.2857  15.3068  15.3280  15.3494  15.0691
 CONDUCTIVITY      4.8971   4.9327   4.9684   5.0041   5.0399   5.0757   5.1116   4.6142
 PRANDTL NUMBER    0.6962   0.6964   0.6965   0.6967   0.6968   0.6970   0.6971   0.6949

  WITH FROZEN REACTIONS

 Cp, KJ/(KG)(K)   15.2231  15.2435  15.2641  15.2848  15.3057  15.3268  15.3480  15.0691
 CONDUCTIVITY      4.8969   4.9324   4.9680   5.0036   5.0393   5.0750   5.1107   4.6141
 PRANDTL NUMBER    0.6962   0.6964   0.6966   0.6967   0.6969   0.6970   0.6972   0.6949

 MOLE FRACTIONS

 *H2              1.00000  1.00000  1.00000  1.00000  1.00000  1.00000  1.00000  1.00000

  * THERMODYNAMIC PROPERTIES FITTED TO 20000.K

 NOTE. WEIGHT FRACTION OF FUEL IN TOTAL FUELS AND OF OXIDANT IN TOTAL OXIDANTS









               THERMODYNAMIC EQUILIBRIUM PROPERTIES AT ASSIGNED

                           TEMPERATURE AND PRESSURE

 CASE =                

             REACTANT                    WT FRACTION      ENERGY      TEMP
                                          (SEE NOTE)     KJ/KG-MOL      K  
             H2                           1.0000000         0.000      0.000

 O/F=    0.00000  %FUEL=100.000000  R,EQ.RATIO= 0.000000  PHI,EQ.RATIO= 0.000000

 THERMODYNAMIC PROPERTIES

 P, BAR           0.06000  0.06000  0.06000  0.06000  0.06000  0.06000  0.06000  0.06000
 T, K             1060.00  1070.00  1080.00  1090.00  1100.00  1110.00  1120.00  1130.00
 RHO, KG/CU M    1.3724-3 1.3596-3 1.3470-3 1.3346-3 1.3225-3 1.3106-3 1.2989-3 1.2874-3
 H, KJ/KG         11160.1  11311.1  11462.2  11613.6  11765.1  11916.9  12068.8  12220.9
 U, KJ/KG         6788.17  6897.89  7007.80  7117.90  7228.19  7338.68  7449.37  7560.26
 G, KJ/KG        -89469.5 -90419.5 -91371.0 -92323.8 -93278.1 -94233.7 -95190.7 -96149.1
 S, KJ/(KG)(K)    94.9336  95.0754  95.2160  95.3554  95.4938  95.6312  95.7674  95.9026

 M, (1/n)           2.016    2.016    2.016    2.016    2.016    2.016    2.016    2.016
 (dLV/dLP)t      -1.00000 -1.00000 -1.00000 -1.00000 -1.00000 -1.00000 -1.00000 -1.00000
 (dLV/dLT)p        1.0000   1.0000   1.0000   1.0000   1.0000   1.0000   1.0000   1.0000
 Cp, KJ/(KG)(K)   15.0874  15.1059  15.1248  15.1440  15.1635  15.1833  15.2033  15.2236
 GAMMAs            1.3762   1.3756   1.3750   1.3743   1.3736   1.3730   1.3723   1.3716
 SON VEL,M/SEC     2452.9   2463.9   2474.8   2485.6   2496.4   2507.1   2517.8   2528.4

 TRANSPORT PROPERTIES (GASES ONLY)
   CONDUCTIVITY IN UNITS OF MILLIWATTS/(CM)(K)

 VISC,MILLIPOISE  0.21419  0.21560  0.21701  0.21841  0.21980  0.22120  0.22258  0.22396

  WITH EQUILIBRIUM REACTIONS

 Cp, KJ/(KG)(K)   15.0874  15.1059  15.1248  15.1440  15.1635  15.1833  15.2033  15.2236
 CONDUCTIVITY      4.6493   4.6846   4.7199   4.7552   4.7906   4.8261   4.8616   4.8971
 PRANDTL NUMBER    0.6950   0.6952   0.6954   0.6956   0.6957   0.6959   0.6961   0.6962

  WITH FROZEN REACTIONS

 Cp, KJ/(KG)(K)   15.0872  15.1058  15.1247  15.1438  15.1633  15.1830  15.2029  15.2231
 CONDUCTIVITY      4.6493   4.6845   4.7198   4.7551   4.7905   4.8259   4.8614   4.8969
 PRANDTL NUMBER    0.6951   0.6952   0.6954   0.6956   0.6957   0.6959   0.6961   0.6962

 MOLE FRACTIONS

 *H2              1.00000  1.00000  1.00000  1.00000  1.00000  1.00000  1.00000  1.00000

  * THERMODYNAMIC PROPERTIES FITTED TO 20000.K

 NOTE. WEIGHT FRACTION OF FUEL IN TOTAL FUELS AND OF OXIDANT IN TOTAL OXIDANTS









               THERMODYNAMIC EQUILIBRIUM PROPERTIES AT ASSIGNED

                           TEMPERATURE AND PRESSURE

 CASE =                

             REACTANT                    WT FRACTION      ENERGY      TEMP
                                          (SEE NOTE)     KJ/KG-MOL      K  
             H2                           1.0000000         0.000      0.000

 O/F=    0.00000  %FUEL=100.000000  R,EQ.RATIO= 0.000000  PHI,EQ.RATIO= 0.000000

 THERMODYNAMIC PROPERTIES

 P, BAR           0.06000  0.06000  0.06000  0.06000  0.06000  0.06000  0.06700  0.06700
 T, K             1140.00  1150.00  1160.00  1170.00  1180.00  1190.00  1050.00  1060.00
 RHO, KG/CU M    1.2761-3 1.2650-3 1.2541-3 1.2434-3 1.2328-3 1.2225-3 1.5471-3 1.5325-3
 H, KJ/KG         12373.3  12525.8  12678.6  12831.5  12984.7  13138.1  11009.4  11160.1
 U, KJ/KG         7671.35  7782.65  7894.16  8005.87  8117.80  8229.94  6678.63  6788.17
 G, KJ/KG        -97108.8 -98069.8 -99032.2 -99995.8-100960.8-101927.1 -88043.1 -88987.1
 S, KJ/(KG)(K)    96.0369  96.1701  96.3023  96.4336  96.5640  96.6934  94.3356  94.4785

 M, (1/n)           2.016    2.016    2.016    2.016    2.016    2.016    2.016    2.016
 (dLV/dLP)t      -1.00000 -1.00000 -1.00000 -1.00000 -1.00000 -1.00000 -1.00000 -1.00000
 (dLV/dLT)p        1.0000   1.0000   1.0000   1.0000   1.0000   1.0000   1.0000   1.0000
 Cp, KJ/(KG)(K)   15.2440  15.2647  15.2856  15.3067  15.3280  15.3494  15.0691  15.0874
 GAMMAs            1.3709   1.3702   1.3696   1.3689   1.3682   1.3675   1.3769   1.3762
 SON VEL,M/SEC     2538.9   2549.4   2559.8   2570.1   2580.4   2590.7   2441.9   2452.9

 TRANSPORT PROPERTIES (GASES ONLY)
   CONDUCTIVITY IN UNITS OF MILLIWATTS/(CM)(K)

 VISC,MILLIPOISE  0.22534  0.22671  0.22808  0.22944  0.23080  0.23215  0.21277  0.21419

  WITH EQUILIBRIUM REACTIONS

 Cp, KJ/(KG)(K)   15.2440  15.2647  15.2856  15.3067  15.3280  15.3494  15.0691  15.0874
 CONDUCTIVITY      4.9327   4.9684   5.0041   5.0399   5.0757   5.1116   4.6142   4.6493
 PRANDTL NUMBER    0.6964   0.6965   0.6967   0.6968   0.6970   0.6971   0.6949   0.6950

  WITH FROZEN REACTIONS

 Cp, KJ/(KG)(K)   15.2435  15.2641  15.2848  15.3057  15.3268  15.3480  15.0691  15.0872
 CONDUCTIVITY      4.9324   4.9680   5.0036   5.0393   5.0750   5.1107   4.6141   4.6493
 PRANDTL NUMBER    0.6964   0.6966   0.6967   0.6969   0.6970   0.6972   0.6949   0.6951

 MOLE FRACTIONS

 *H2              1.00000  1.00000  1.00000  1.00000  1.00000  1.00000  1.00000  1.00000

  * THERMODYNAMIC PROPERTIES FITTED TO 20000.K

 NOTE. WEIGHT FRACTION OF FUEL IN TOTAL FUELS AND OF OXIDANT IN TOTAL OXIDANTS









               THERMODYNAMIC EQUILIBRIUM PROPERTIES AT ASSIGNED

                           TEMPERATURE AND PRESSURE

 CASE =                

             REACTANT                    WT FRACTION      ENERGY      TEMP
                                          (SEE NOTE)     KJ/KG-MOL      K  
             H2                           1.0000000         0.000      0.000

 O/F=    0.00000  %FUEL=100.000000  R,EQ.RATIO= 0.000000  PHI,EQ.RATIO= 0.000000

 THERMODYNAMIC PROPERTIES

 P, BAR           0.06700  0.06700  0.06700  0.06700  0.06700  0.06700  0.06700  0.06700
 T, K             1070.00  1080.00  1090.00  1100.00  1110.00  1120.00  1130.00  1140.00
 RHO, KG/CU M    1.5182-3 1.5041-3 1.4903-3 1.4768-3 1.4635-3 1.4504-3 1.4376-3 1.4250-3
 H, KJ/KG         11311.1  11462.2  11613.6  11765.1  11916.9  12068.8  12220.9  12373.3
 U, KJ/KG         6897.89  7007.80  7117.90  7228.19  7338.68  7449.37  7560.26  7671.35
 G, KJ/KG        -89932.6 -90879.4 -91827.8 -92777.4 -93728.5 -94681.0 -95634.8 -96589.9
 S, KJ/(KG)(K)    94.6202  94.7608  94.9003  95.0387  95.1760  95.3123  95.4475  95.5817

 M, (1/n)           2.016    2.016    2.016    2.016    2.016    2.016    2.016    2.016
 (dLV/dLP)t      -1.00000 -1.00000 -1.00000 -1.00000 -1.00000 -1.00000 -1.00000 -1.00000
 (dLV/dLT)p        1.0000   1.0000   1.0000   1.0000   1.0000   1.0000   1.0000   1.0000
 Cp, KJ/(KG)(K)   15.1059  15.1248  15.1440  15.1635  15.1833  15.2033  15.2235  15.2440
 GAMMAs            1.3756   1.3750   1.3743   1.3736   1.3730   1.3723   1.3716   1.3709
 SON VEL,M/SEC     2463.9   2474.8   2485.6   2496.4   2507.1   2517.8   2528.4   2538.9

 TRANSPORT PROPERTIES (GASES ONLY)
   CONDUCTIVITY IN UNITS OF MILLIWATTS/(CM)(K)

 VISC,MILLIPOISE  0.21560  0.21701  0.21841  0.21980  0.22120  0.22258  0.22396  0.22534

  WITH EQUILIBRIUM REACTIONS

 Cp, KJ/(KG)(K)   15.1059  15.1248  15.1440  15.1635  15.1833  15.2033  15.2235  15.2440
 CONDUCTIVITY      4.6846   4.7199   4.7552   4.7906   4.8261   4.8616   4.8971   4.9327
 PRANDTL NUMBER    0.6952   0.6954   0.6956   0.6957   0.6959   0.6961   0.6962   0.6964

  WITH FROZEN REACTIONS

 Cp, KJ/(KG)(K)   15.1058  15.1247  15.1438  15.1633  15.1830  15.2029  15.2231  15.2435
 CONDUCTIVITY      4.6845   4.7198   4.7551   4.7905   4.8259   4.8614   4.8969   4.9324
 PRANDTL NUMBER    0.6952   0.6954   0.6956   0.6957   0.6959   0.6961   0.6962   0.6964

 MOLE FRACTIONS

 *H2              1.00000  1.00000  1.00000  1.00000  1.00000  1.00000  1.00000  1.00000

  * THERMODYNAMIC PROPERTIES FITTED TO 20000.K

 NOTE. WEIGHT FRACTION OF FUEL IN TOTAL FUELS AND OF OXIDANT IN TOTAL OXIDANTS









               THERMODYNAMIC EQUILIBRIUM PROPERTIES AT ASSIGNED

                           TEMPERATURE AND PRESSURE

 CASE =                

             REACTANT                    WT FRACTION      ENERGY      TEMP
                                          (SEE NOTE)     KJ/KG-MOL      K  
             H2                           1.0000000         0.000      0.000

 O/F=    0.00000  %FUEL=100.000000  R,EQ.RATIO= 0.000000  PHI,EQ.RATIO= 0.000000

 THERMODYNAMIC PROPERTIES

 P, BAR           0.06700  0.06700  0.06700  0.06700  0.06700  0.07400  0.07400  0.07400
 T, K             1150.00  1160.00  1170.00  1180.00  1190.00  1050.00  1060.00  1070.00
 RHO, KG/CU M    1.4126-3 1.4004-3 1.3884-3 1.3766-3 1.3651-3 1.7087-3 1.6926-3 1.6768-3
 H, KJ/KG         12525.8  12678.6  12831.5  12984.7  13138.1  11009.4  11160.1  11311.1
 U, KJ/KG         7782.65  7894.15  8005.87  8117.80  8229.94  6678.63  6788.17  6897.89
 G, KJ/KG        -97546.4 -98504.2 -99463.3-100423.8-101385.5 -87612.7 -88552.6 -89494.0
 S, KJ/(KG)(K)    95.7150  95.8472  95.9785  96.1089  96.2383  93.9258  94.0686  94.2104

 M, (1/n)           2.016    2.016    2.016    2.016    2.016    2.016    2.016    2.016
 (dLV/dLP)t      -1.00000 -1.00000 -1.00000 -1.00000 -1.00000 -1.00000 -1.00000 -1.00000
 (dLV/dLT)p        1.0000   1.0000   1.0000   1.0000   1.0000   1.0000   1.0000   1.0000
 Cp, KJ/(KG)(K)   15.2647  15.2856  15.3066  15.3279  15.3493  15.0691  15.0873  15.1059
 GAMMAs            1.3702   1.3696   1.3689   1.3682   1.3675   1.3769   1.3762   1.3756
 SON VEL,M/SEC     2549.4   2559.8   2570.1   2580.4   2590.7   2441.9   2452.9   2463.9

 TRANSPORT PROPERTIES (GASES ONLY)
   CONDUCTIVITY IN UNITS OF MILLIWATTS/(CM)(K)

 VISC,MILLIPOISE  0.22671  0.22808  0.22944  0.23080  0.23215  0.21277  0.21419  0.21560

  WITH EQUILIBRIUM REACTIONS

 Cp, KJ/(KG)(K)   15.2647  15.2856  15.3066  15.3279  15.3493  15.0691  15.0873  15.1059
 CONDUCTIVITY      4.9684   5.0041   5.0398   5.0756   5.1115   4.6142   4.6493   4.6846
 PRANDTL NUMBER    0.6965   0.6967   0.6968   0.6970   0.6971   0.6949   0.6950   0.6952

  WITH FROZEN REACTIONS

 Cp, KJ/(KG)(K)   15.2641  15.2848  15.3057  15.3268  15.3480  15.0691  15.0872  15.1058
 CONDUCTIVITY      4.9680   5.0036   5.0393   5.0750   5.1107   4.6141   4.6493   4.6845
 PRANDTL NUMBER    0.6966   0.6967   0.6969   0.6970   0.6972   0.6949   0.6951   0.6952

 MOLE FRACTIONS

 *H2              1.00000  1.00000  1.00000  1.00000  1.00000  1.00000  1.00000  1.00000

  * THERMODYNAMIC PROPERTIES FITTED TO 20000.K

 NOTE. WEIGHT FRACTION OF FUEL IN TOTAL FUELS AND OF OXIDANT IN TOTAL OXIDANTS









               THERMODYNAMIC EQUILIBRIUM PROPERTIES AT ASSIGNED

                           TEMPERATURE AND PRESSURE

 CASE =                

             REACTANT                    WT FRACTION      ENERGY      TEMP
                                          (SEE NOTE)     KJ/KG-MOL      K  
             H2                           1.0000000         0.000      0.000

 O/F=    0.00000  %FUEL=100.000000  R,EQ.RATIO= 0.000000  PHI,EQ.RATIO= 0.000000

 THERMODYNAMIC PROPERTIES

 P, BAR           0.07400  0.07400  0.07400  0.07400  0.07400  0.07400  0.07400  0.07400
 T, K             1080.00  1090.00  1100.00  1110.00  1120.00  1130.00  1140.00  1150.00
 RHO, KG/CU M    1.6613-3 1.6460-3 1.6311-3 1.6164-3 1.6019-3 1.5878-3 1.5738-3 1.5601-3
 H, KJ/KG         11462.2  11613.6  11765.1  11916.9  12068.8  12220.9  12373.3  12525.8
 U, KJ/KG         7007.80  7117.90  7228.19  7338.68  7449.37  7560.26  7671.35  7782.65
 G, KJ/KG        -90436.8 -91381.0 -92326.6 -93273.6 -94221.9 -95171.6 -96122.7 -97075.1
 S, KJ/(KG)(K)    94.3510  94.4905  94.6288  94.7662  94.9024  95.0377  95.1719  95.3051

 M, (1/n)           2.016    2.016    2.016    2.016    2.016    2.016    2.016    2.016
 (dLV/dLP)t      -1.00000 -1.00000 -1.00000 -1.00000 -1.00000 -1.00000 -1.00000 -1.00000
 (dLV/dLT)p        1.0000   1.0000   1.0000   1.0000   1.0000   1.0000   1.0000   1.0000
 Cp, KJ/(KG)(K)   15.1248  15.1440  15.1635  15.1833  15.2033  15.2235  15.2440  15.2647
 GAMMAs            1.3750   1.3743   1.3736   1.3730   1.3723   1.3716   1.3709   1.3702
 SON VEL,M/SEC     2474.8   2485.6   2496.4   2507.1   2517.8   2528.4   2538.9   2549.4

 TRANSPORT PROPERTIES (GASES ONLY)
   CONDUCTIVITY IN UNITS OF MILLIWATTS/(CM)(K)

 VISC,MILLIPOISE  0.21701  0.21841  0.21980  0.22120  0.22258  0.22396  0.22534  0.22671

  WITH EQUILIBRIUM REACTIONS

 Cp, KJ/(KG)(K)   15.1248  15.1440  15.1635  15.1833  15.2033  15.2235  15.2440  15.2647
 CONDUCTIVITY      4.7199   4.7552   4.7906   4.8261   4.8616   4.8971   4.9327   4.9683
 PRANDTL NUMBER    0.6954   0.6956   0.6957   0.6959   0.6961   0.6962   0.6964   0.6965

  WITH FROZEN REACTIONS

 Cp, KJ/(KG)(K)   15.1247  15.1438  15.1633  15.1830  15.2029  15.2231  15.2435  15.2641
 CONDUCTIVITY      4.7198   4.7551   4.7905   4.8259   4.8614   4.8969   4.9324   4.9680
 PRANDTL NUMBER    0.6954   0.6956   0.6957   0.6959   0.6961   0.6962   0.6964   0.6966

 MOLE FRACTIONS

 *H2              1.00000  1.00000  1.00000  1.00000  1.00000  1.00000  1.00000  1.00000

  * THERMODYNAMIC PROPERTIES FITTED TO 20000.K

 NOTE. WEIGHT FRACTION OF FUEL IN TOTAL FUELS AND OF OXIDANT IN TOTAL OXIDANTS









               THERMODYNAMIC EQUILIBRIUM PROPERTIES AT ASSIGNED

                           TEMPERATURE AND PRESSURE

 CASE =                

             REACTANT                    WT FRACTION      ENERGY      TEMP
                                          (SEE NOTE)     KJ/KG-MOL      K  
             H2                           1.0000000         0.000      0.000

 O/F=    0.00000  %FUEL=100.000000  R,EQ.RATIO= 0.000000  PHI,EQ.RATIO= 0.000000

 THERMODYNAMIC PROPERTIES

 P, BAR           0.07400  0.07400  0.07400  0.07400  0.08250  0.08250  0.08250  0.08250
 T, K             1160.00  1170.00  1180.00  1190.00  1050.00  1060.00  1070.00  1080.00
 RHO, KG/CU M    1.5467-3 1.5335-3 1.5205-3 1.5077-3 1.9050-3 1.8870-3 1.8694-3 1.8521-3
 H, KJ/KG         12678.6  12831.5  12984.7  13138.1  11009.4  11160.1  11311.1  11462.2
 U, KJ/KG         7894.15  8005.87  8117.79  8229.93  6678.63  6788.17  6897.89  7007.80
 G, KJ/KG        -98028.8 -98983.8 -99940.1-100897.8 -87141.8 -88077.2 -89014.1 -89952.4
 S, KJ/(KG)(K)    95.4374  95.5686  95.6990  95.8284  93.4773  93.6202  93.7619  93.9025

 M, (1/n)           2.016    2.016    2.016    2.016    2.016    2.016    2.016    2.016
 (dLV/dLP)t      -1.00000 -1.00000 -1.00000 -1.00000 -1.00000 -1.00000 -1.00000 -1.00000
 (dLV/dLT)p        1.0000   1.0000   1.0000   1.0000   1.0000   1.0000   1.0000   1.0000
 Cp, KJ/(KG)(K)   15.2855  15.3066  15.3278  15.3492  15.0691  15.0873  15.1059  15.1248
 GAMMAs            1.3696   1.3689   1.3682   1.3675   1.3769   1.3762   1.3756   1.3750
 SON VEL,M/SEC     2559.8   2570.1   2580.4   2590.7   2441.9   2452.9   2463.9   2474.8

 TRANSPORT PROPERTIES (GASES ONLY)
   CONDUCTIVITY IN UNITS OF MILLIWATTS/(CM)(K)

 VISC,MILLIPOISE  0.22808  0.22944  0.23080  0.23215  0.21277  0.21419  0.21560  0.21701

  WITH EQUILIBRIUM REACTIONS

 Cp, KJ/(KG)(K)   15.2855  15.3066  15.3278  15.3492  15.0691  15.0873  15.1059  15.1248
 CONDUCTIVITY      5.0040   5.0398   5.0756   5.1115   4.6142   4.6493   4.6846   4.7199
 PRANDTL NUMBER    0.6967   0.6968   0.6970   0.6971   0.6949   0.6950   0.6952   0.6954

  WITH FROZEN REACTIONS

 Cp, KJ/(KG)(K)   15.2848  15.3057  15.3268  15.3480  15.0691  15.0872  15.1058  15.1247
 CONDUCTIVITY      5.0036   5.0393   5.0750   5.1107   4.6141   4.6493   4.6845   4.7198
 PRANDTL NUMBER    0.6967   0.6969   0.6970   0.6972   0.6949   0.6951   0.6952   0.6954

 MOLE FRACTIONS

 *H2              1.00000  1.00000  1.00000  1.00000  1.00000  1.00000  1.00000  1.00000

  * THERMODYNAMIC PROPERTIES FITTED TO 20000.K

 NOTE. WEIGHT FRACTION OF FUEL IN TOTAL FUELS AND OF OXIDANT IN TOTAL OXIDANTS









               THERMODYNAMIC EQUILIBRIUM PROPERTIES AT ASSIGNED

                           TEMPERATURE AND PRESSURE

 CASE =                

             REACTANT                    WT FRACTION      ENERGY      TEMP
                                          (SEE NOTE)     KJ/KG-MOL      K  
             H2                           1.0000000         0.000      0.000

 O/F=    0.00000  %FUEL=100.000000  R,EQ.RATIO= 0.000000  PHI,EQ.RATIO= 0.000000

 THERMODYNAMIC PROPERTIES

 P, BAR           0.08250  0.08250  0.08250  0.08250  0.08250  0.08250  0.08250  0.08250
 T, K             1090.00  1100.00  1110.00  1120.00  1130.00  1140.00  1150.00  1160.00
 RHO, KG/CU M    1.8351-3 1.8184-3 1.8020-3 1.7859-3 1.7701-3 1.7546-3 1.7393-3 1.7244-3
 H, KJ/KG         11613.6  11765.1  11916.9  12068.8  12220.9  12373.3  12525.8  12678.6
 U, KJ/KG         7117.90  7228.19  7338.68  7449.37  7560.25  7671.35  7782.64  7894.15
 G, KJ/KG        -90892.2 -91833.3 -92775.8 -93719.6 -94664.8 -95611.4 -96559.3 -97508.5
 S, KJ/(KG)(K)    94.0420  94.1804  94.3177  94.4540  94.5892  94.7234  94.8566  94.9889

 M, (1/n)           2.016    2.016    2.016    2.016    2.016    2.016    2.016    2.016
 (dLV/dLP)t      -1.00000 -1.00000 -1.00000 -1.00000 -1.00000 -1.00000 -1.00000 -1.00000
 (dLV/dLT)p        1.0000   1.0000   1.0000   1.0000   1.0000   1.0000   1.0000   1.0000
 Cp, KJ/(KG)(K)   15.1440  15.1635  15.1832  15.2033  15.2235  15.2440  15.2646  15.2855
 GAMMAs            1.3743   1.3736   1.3730   1.3723   1.3716   1.3709   1.3702   1.3696
 SON VEL,M/SEC     2485.6   2496.4   2507.1   2517.8   2528.4   2538.9   2549.4   2559.8

 TRANSPORT PROPERTIES (GASES ONLY)
   CONDUCTIVITY IN UNITS OF MILLIWATTS/(CM)(K)

 VISC,MILLIPOISE  0.21841  0.21980  0.22120  0.22258  0.22396  0.22534  0.22671  0.22808

  WITH EQUILIBRIUM REACTIONS

 Cp, KJ/(KG)(K)   15.1440  15.1635  15.1832  15.2033  15.2235  15.2440  15.2646  15.2855
 CONDUCTIVITY      4.7552   4.7906   4.8260   4.8615   4.8971   4.9327   4.9683   5.0040
 PRANDTL NUMBER    0.6956   0.6957   0.6959   0.6961   0.6962   0.6964   0.6965   0.6967

  WITH FROZEN REACTIONS

 Cp, KJ/(KG)(K)   15.1438  15.1633  15.1830  15.2029  15.2231  15.2435  15.2641  15.2848
 CONDUCTIVITY      4.7551   4.7905   4.8259   4.8614   4.8969   4.9324   4.9680   5.0036
 PRANDTL NUMBER    0.6956   0.6957   0.6959   0.6961   0.6962   0.6964   0.6966   0.6967

 MOLE FRACTIONS

 *H2              1.00000  1.00000  1.00000  1.00000  1.00000  1.00000  1.00000  1.00000

  * THERMODYNAMIC PROPERTIES FITTED TO 20000.K

 NOTE. WEIGHT FRACTION OF FUEL IN TOTAL FUELS AND OF OXIDANT IN TOTAL OXIDANTS









               THERMODYNAMIC EQUILIBRIUM PROPERTIES AT ASSIGNED

                           TEMPERATURE AND PRESSURE

 CASE =                

             REACTANT                    WT FRACTION      ENERGY      TEMP
                                          (SEE NOTE)     KJ/KG-MOL      K  
             H2                           1.0000000         0.000      0.000

 O/F=    0.00000  %FUEL=100.000000  R,EQ.RATIO= 0.000000  PHI,EQ.RATIO= 0.000000

 THERMODYNAMIC PROPERTIES

 P, BAR           0.08250  0.08250  0.08250  0.09100  0.09100  0.09100  0.09100  0.09100
 T, K             1170.00  1180.00  1190.00  1050.00  1060.00  1070.00  1080.00  1090.00
 RHO, KG/CU M    1.7096-3 1.6951-3 1.6809-3 2.1013-3 2.0814-3 2.0620-3 2.0429-3 2.0242-3
 H, KJ/KG         12831.5  12984.7  13138.1  11009.4  11160.1  11311.1  11462.2  11613.6
 U, KJ/KG         8005.87  8117.79  8229.93  6678.63  6788.17  6897.89  7007.80  7117.90
 G, KJ/KG        -98459.1 -99410.9-100364.1 -86717.1 -87648.5 -88581.4 -89515.6 -90451.3
 S, KJ/(KG)(K)    95.1202  95.2505  95.3800  93.0728  93.2157  93.3574  93.4980  93.6375

 M, (1/n)           2.016    2.016    2.016    2.016    2.016    2.016    2.016    2.016
 (dLV/dLP)t      -1.00000 -1.00000 -1.00000 -1.00000 -1.00000 -1.00000 -1.00000 -1.00000
 (dLV/dLT)p        1.0000   1.0000   1.0000   1.0000   1.0000   1.0000   1.0000   1.0000
 Cp, KJ/(KG)(K)   15.3066  15.3278  15.3492  15.0691  15.0873  15.1059  15.1248  15.1440
 GAMMAs            1.3689   1.3682   1.3675   1.3769   1.3762   1.3756   1.3750   1.3743
 SON VEL,M/SEC     2570.1   2580.4   2590.7   2441.9   2452.9   2463.9   2474.8   2485.6

 TRANSPORT PROPERTIES (GASES ONLY)
   CONDUCTIVITY IN UNITS OF MILLIWATTS/(CM)(K)

 VISC,MILLIPOISE  0.22944  0.23080  0.23215  0.21277  0.21419  0.21560  0.21701  0.21841

  WITH EQUILIBRIUM REACTIONS

 Cp, KJ/(KG)(K)   15.3066  15.3278  15.3492  15.0691  15.0873  15.1059  15.1248  15.1440
 CONDUCTIVITY      5.0398   5.0756   5.1114   4.6142   4.6493   4.6846   4.7199   4.7552
 PRANDTL NUMBER    0.6968   0.6970   0.6971   0.6949   0.6950   0.6952   0.6954   0.6956

  WITH FROZEN REACTIONS

 Cp, KJ/(KG)(K)   15.3057  15.3268  15.3480  15.0691  15.0872  15.1058  15.1247  15.1438
 CONDUCTIVITY      5.0393   5.0750   5.1107   4.6141   4.6493   4.6845   4.7198   4.7551
 PRANDTL NUMBER    0.6969   0.6970   0.6972   0.6949   0.6951   0.6952   0.6954   0.6956

 MOLE FRACTIONS

 *H2              1.00000  1.00000  1.00000  1.00000  1.00000  1.00000  1.00000  1.00000

  * THERMODYNAMIC PROPERTIES FITTED TO 20000.K

 NOTE. WEIGHT FRACTION OF FUEL IN TOTAL FUELS AND OF OXIDANT IN TOTAL OXIDANTS









               THERMODYNAMIC EQUILIBRIUM PROPERTIES AT ASSIGNED

                           TEMPERATURE AND PRESSURE

 CASE =                

             REACTANT                    WT FRACTION      ENERGY      TEMP
                                          (SEE NOTE)     KJ/KG-MOL      K  
             H2                           1.0000000         0.000      0.000

 O/F=    0.00000  %FUEL=100.000000  R,EQ.RATIO= 0.000000  PHI,EQ.RATIO= 0.000000

 THERMODYNAMIC PROPERTIES

 P, BAR           0.09100  0.09100  0.09100  0.09100  0.09100  0.09100  0.09100  0.09100
 T, K             1100.00  1110.00  1120.00  1130.00  1140.00  1150.00  1160.00  1170.00
 RHO, KG/CU M    2.0058-3 1.9877-3 1.9699-3 1.9525-3 1.9354-3 1.9186-3 1.9020-3 1.8858-3
 H, KJ/KG         11765.1  11916.9  12068.8  12220.9  12373.3  12525.8  12678.6  12831.5
 U, KJ/KG         7228.19  7338.68  7449.37  7560.25  7671.35  7782.64  7894.15  8005.86
 G, KJ/KG        -91388.4 -92326.8 -93266.6 -94207.8 -95150.3 -96094.2 -97039.4 -97985.9
 S, KJ/(KG)(K)    93.7759  93.9132  94.0495  94.1847  94.3189  94.4522  94.5844  94.7157

 M, (1/n)           2.016    2.016    2.016    2.016    2.016    2.016    2.016    2.016
 (dLV/dLP)t      -1.00000 -1.00000 -1.00000 -1.00000 -1.00000 -1.00000 -1.00000 -1.00000
 (dLV/dLT)p        1.0000   1.0000   1.0000   1.0000   1.0000   1.0000   1.0000   1.0000
 Cp, KJ/(KG)(K)   15.1635  15.1832  15.2032  15.2235  15.2439  15.2646  15.2855  15.3065
 GAMMAs            1.3736   1.3730   1.3723   1.3716   1.3709   1.3702   1.3696   1.3689
 SON VEL,M/SEC     2496.4   2507.1   2517.8   2528.4   2538.9   2549.4   2559.8   2570.1

 TRANSPORT PROPERTIES (GASES ONLY)
   CONDUCTIVITY IN UNITS OF MILLIWATTS/(CM)(K)

 VISC,MILLIPOISE  0.21980  0.22120  0.22258  0.22396  0.22534  0.22671  0.22808  0.22944

  WITH EQUILIBRIUM REACTIONS

 Cp, KJ/(KG)(K)   15.1635  15.1832  15.2032  15.2235  15.2439  15.2646  15.2855  15.3065
 CONDUCTIVITY      4.7906   4.8260   4.8615   4.8971   4.9327   4.9683   5.0040   5.0397
 PRANDTL NUMBER    0.6957   0.6959   0.6961   0.6962   0.6964   0.6965   0.6967   0.6968

  WITH FROZEN REACTIONS

 Cp, KJ/(KG)(K)   15.1633  15.1830  15.2029  15.2231  15.2435  15.2641  15.2848  15.3057
 CONDUCTIVITY      4.7905   4.8259   4.8614   4.8969   4.9324   4.9680   5.0036   5.0393
 PRANDTL NUMBER    0.6957   0.6959   0.6961   0.6962   0.6964   0.6966   0.6967   0.6969

 MOLE FRACTIONS

 *H2              1.00000  1.00000  1.00000  1.00000  1.00000  1.00000  1.00000  1.00000

  * THERMODYNAMIC PROPERTIES FITTED TO 20000.K

 NOTE. WEIGHT FRACTION OF FUEL IN TOTAL FUELS AND OF OXIDANT IN TOTAL OXIDANTS









               THERMODYNAMIC EQUILIBRIUM PROPERTIES AT ASSIGNED

                           TEMPERATURE AND PRESSURE

 CASE =                

             REACTANT                    WT FRACTION      ENERGY      TEMP
                                          (SEE NOTE)     KJ/KG-MOL      K  
             H2                           1.0000000         0.000      0.000

 O/F=    0.00000  %FUEL=100.000000  R,EQ.RATIO= 0.000000  PHI,EQ.RATIO= 0.000000

 THERMODYNAMIC PROPERTIES

 P, BAR           0.09100  0.09100  0.10000  0.10000  0.10000  0.10000  0.10000  0.10000
 T, K             1180.00  1190.00  1050.00  1060.00  1070.00  1080.00  1090.00  1100.00
 RHO, KG/CU M    1.8698-3 1.8541-3 2.3091-3 2.2873-3 2.2659-3 2.2449-3 2.2244-3 2.2041-3
 H, KJ/KG         12984.7  13138.1  11009.4  11160.1  11311.1  11462.2  11613.6  11765.1
 U, KJ/KG         8117.79  8229.93  6678.63  6788.17  6897.89  7007.80  7117.90  7228.19
 G, KJ/KG        -98933.7 -99882.8 -86308.7 -87236.2 -88165.2 -89095.5 -90027.3 -90960.5
 S, KJ/(KG)(K)    94.8461  94.9755  92.6839  92.8267  92.9685  93.1091  93.2485  93.3869

 M, (1/n)           2.016    2.016    2.016    2.016    2.016    2.016    2.016    2.016
 (dLV/dLP)t      -1.00000 -1.00000 -1.00000 -1.00000 -1.00000 -1.00000 -1.00000 -1.00000
 (dLV/dLT)p        1.0000   1.0000   1.0000   1.0000   1.0000   1.0000   1.0000   1.0000
 Cp, KJ/(KG)(K)   15.3277  15.3491  15.0691  15.0873  15.1059  15.1248  15.1440  15.1635
 GAMMAs            1.3682   1.3675   1.3769   1.3762   1.3756   1.3750   1.3743   1.3736
 SON VEL,M/SEC     2580.4   2590.7   2441.9   2452.9   2463.9   2474.8   2485.6   2496.4

 TRANSPORT PROPERTIES (GASES ONLY)
   CONDUCTIVITY IN UNITS OF MILLIWATTS/(CM)(K)

 VISC,MILLIPOISE  0.23080  0.23215  0.21277  0.21419  0.21560  0.21701  0.21841  0.21980

  WITH EQUILIBRIUM REACTIONS

 Cp, KJ/(KG)(K)   15.3277  15.3491  15.0691  15.0873  15.1059  15.1248  15.1440  15.1635
 CONDUCTIVITY      5.0755   5.1114   4.6142   4.6493   4.6846   4.7199   4.7552   4.7906
 PRANDTL NUMBER    0.6970   0.6971   0.6949   0.6950   0.6952   0.6954   0.6956   0.6957

  WITH FROZEN REACTIONS

 Cp, KJ/(KG)(K)   15.3268  15.3480  15.0691  15.0872  15.1058  15.1247  15.1438  15.1633
 CONDUCTIVITY      5.0750   5.1107   4.6141   4.6493   4.6845   4.7198   4.7551   4.7905
 PRANDTL NUMBER    0.6970   0.6972   0.6949   0.6951   0.6952   0.6954   0.6956   0.6957

 MOLE FRACTIONS

 *H2              1.00000  1.00000  1.00000  1.00000  1.00000  1.00000  1.00000  1.00000

  * THERMODYNAMIC PROPERTIES FITTED TO 20000.K

 NOTE. WEIGHT FRACTION OF FUEL IN TOTAL FUELS AND OF OXIDANT IN TOTAL OXIDANTS









               THERMODYNAMIC EQUILIBRIUM PROPERTIES AT ASSIGNED

                           TEMPERATURE AND PRESSURE

 CASE =                

             REACTANT                    WT FRACTION      ENERGY      TEMP
                                          (SEE NOTE)     KJ/KG-MOL      K  
             H2                           1.0000000         0.000      0.000

 O/F=    0.00000  %FUEL=100.000000  R,EQ.RATIO= 0.000000  PHI,EQ.RATIO= 0.000000

 THERMODYNAMIC PROPERTIES

 P, BAR           0.10000  0.10000  0.10000  0.10000  0.10000  0.10000  0.10000  0.10000
 T, K             1110.00  1120.00  1130.00  1140.00  1150.00  1160.00  1170.00  1180.00
 RHO, KG/CU M    2.1843-3 2.1648-3 2.1456-3 2.1268-3 2.1083-3 2.0901-3 2.0723-3 2.0547-3
 H, KJ/KG         11916.9  12068.8  12220.9  12373.3  12525.8  12678.6  12831.5  12984.7
 U, KJ/KG         7338.68  7449.36  7560.25  7671.34  7782.64  7894.15  8005.86  8117.79
 G, KJ/KG        -91895.1 -92831.0 -93768.3 -94706.9 -95646.9 -96588.1 -97530.8 -98474.7
 S, KJ/(KG)(K)    93.5242  93.6605  93.7957  93.9300  94.0632  94.1954  94.3267  94.4571

 M, (1/n)           2.016    2.016    2.016    2.016    2.016    2.016    2.016    2.016
 (dLV/dLP)t      -1.00000 -1.00000 -1.00000 -1.00000 -1.00000 -1.00000 -1.00000 -1.00000
 (dLV/dLT)p        1.0000   1.0000   1.0000   1.0000   1.0000   1.0000   1.0000   1.0000
 Cp, KJ/(KG)(K)   15.1832  15.2032  15.2235  15.2439  15.2646  15.2854  15.3065  15.3277
 GAMMAs            1.3730   1.3723   1.3716   1.3709   1.3702   1.3696   1.3689   1.3682
 SON VEL,M/SEC     2507.1   2517.8   2528.4   2538.9   2549.4   2559.8   2570.1   2580.4

 TRANSPORT PROPERTIES (GASES ONLY)
   CONDUCTIVITY IN UNITS OF MILLIWATTS/(CM)(K)

 VISC,MILLIPOISE  0.22120  0.22258  0.22396  0.22534  0.22671  0.22808  0.22944  0.23080

  WITH EQUILIBRIUM REACTIONS

 Cp, KJ/(KG)(K)   15.1832  15.2032  15.2235  15.2439  15.2646  15.2854  15.3065  15.3277
 CONDUCTIVITY      4.8260   4.8615   4.8971   4.9327   4.9683   5.0040   5.0397   5.0755
 PRANDTL NUMBER    0.6959   0.6961   0.6962   0.6964   0.6965   0.6967   0.6968   0.6970

  WITH FROZEN REACTIONS

 Cp, KJ/(KG)(K)   15.1830  15.2029  15.2231  15.2435  15.2641  15.2848  15.3057  15.3268
 CONDUCTIVITY      4.8259   4.8614   4.8969   4.9324   4.9680   5.0036   5.0393   5.0750
 PRANDTL NUMBER    0.6959   0.6961   0.6962   0.6964   0.6966   0.6967   0.6969   0.6970

 MOLE FRACTIONS

 *H2              1.00000  1.00000  1.00000  1.00000  1.00000  1.00000  1.00000  1.00000

  * THERMODYNAMIC PROPERTIES FITTED TO 20000.K

 NOTE. WEIGHT FRACTION OF FUEL IN TOTAL FUELS AND OF OXIDANT IN TOTAL OXIDANTS









               THERMODYNAMIC EQUILIBRIUM PROPERTIES AT ASSIGNED

                           TEMPERATURE AND PRESSURE

 CASE =                

             REACTANT                    WT FRACTION      ENERGY      TEMP
                                          (SEE NOTE)     KJ/KG-MOL      K  
             H2                           1.0000000         0.000      0.000

 O/F=    0.00000  %FUEL=100.000000  R,EQ.RATIO= 0.000000  PHI,EQ.RATIO= 0.000000

 THERMODYNAMIC PROPERTIES

 P, BAR           0.10000
 T, K             1190.00
 RHO, KG/CU M    2.0374-3
 H, KJ/KG         13138.1
 U, KJ/KG         8229.93
 G, KJ/KG        -99419.9
 S, KJ/(KG)(K)    94.5865

 M, (1/n)           2.016
 (dLV/dLP)t      -1.00000
 (dLV/dLT)p        1.0000
 Cp, KJ/(KG)(K)   15.3491
 GAMMAs            1.3675
 SON VEL,M/SEC     2590.7

 TRANSPORT PROPERTIES (GASES ONLY)
   CONDUCTIVITY IN UNITS OF MILLIWATTS/(CM)(K)

 VISC,MILLIPOISE  0.23215

  WITH EQUILIBRIUM REACTIONS

 Cp, KJ/(KG)(K)   15.3491
 CONDUCTIVITY      5.1114
 PRANDTL NUMBER    0.6971

  WITH FROZEN REACTIONS

 Cp, KJ/(KG)(K)   15.3480
 CONDUCTIVITY      5.1107
 PRANDTL NUMBER    0.6972

 MOLE FRACTIONS

 *H2              1.00000

  * THERMODYNAMIC PROPERTIES FITTED TO 20000.K

 NOTE. WEIGHT FRACTION OF FUEL IN TOTAL FUELS AND OF OXIDANT IN TOTAL OXIDANTS



  
