
 *******************************************************************************

         NASA-GLENN CHEMICAL EQUILIBRIUM PROGRAM CEA2, MAY 21, 2004
                   BY  BONNIE MCBRIDE AND SANFORD GORDON
      REFS: NASA RP-1311, PART I, 1994 AND NASA RP-1311, PART II, 1996

 *******************************************************************************



  prob tp ions
  p,bar= 60.0,67.0,74.0,82.5,91.0,100.0,110.0,120.0,132.0,148.0,165.0,180.0,200.0
 ,225.0,250.0
  t,k= 7650,7660,7670,7680,7690,7700,7710,7720,7730,7740,7750,7760,7770,7780,7790
  
  reac
  na H2                wt%=100.0000
  
  output short
  output siunits
  output transport
  
 end





               THERMODYNAMIC EQUILIBRIUM PROPERTIES AT ASSIGNED

                           TEMPERATURE AND PRESSURE

 CASE =                

             REACTANT                    WT FRACTION      ENERGY      TEMP
                                          (SEE NOTE)     KJ/KG-MOL      K  
             H2                           1.0000000         0.000      0.000

 O/F=    0.00000  %FUEL=100.000000  R,EQ.RATIO= 0.000000  PHI,EQ.RATIO= 0.000000

 THERMODYNAMIC PROPERTIES

 P, BAR            60.000   60.000   60.000   60.000   60.000   60.000   60.000   60.000
 T, K             7650.00  7660.00  7670.00  7680.00  7690.00  7700.00  7710.00  7720.00
 RHO, KG/CU M    9.7767-2 9.7615-2 9.7464-2 9.7313-2 9.7163-2 9.7013-2 9.6864-2 9.6716-2
 H, KJ/KG        355418.6 355739.9 356060.1 356379.1 356697.1 357014.0 357329.8 357644.6
 U, KJ/KG        294048.3 294274.0 294498.7 294722.4 294945.1 295166.8 295387.6 295607.4
 G, KJ/KG       -758169.5-759625.4-761081.7-762538.4-763995.5-765453.0-766911.0-768369.4
 S, KJ/(KG)(K)   145.5671 145.6090 145.6508 145.6924 145.7338 145.7749 145.8159 145.8567

 M, (1/n)           1.036    1.036    1.036    1.036    1.035    1.035    1.035    1.035
 (dLV/dLP)t      -1.02622 -1.02601 -1.02580 -1.02559 -1.02538 -1.02518 -1.02497 -1.02477
 (dLV/dLT)p        1.1927   1.1909   1.1891   1.1874   1.1856   1.1839   1.1823   1.1806
 Cp, KJ/(KG)(K)   32.1860  32.0731  31.9617  31.8517  31.7431  31.6359  31.5300  31.4255
 GAMMAs            1.4888   1.4899   1.4909   1.4920   1.4931   1.4941   1.4952   1.4962
 SON VEL,M/SEC     9558.6   9569.5   9580.4   9591.3   9602.1   9612.8   9623.6   9634.3

 TRANSPORT PROPERTIES (GASES ONLY)
   CONDUCTIVITY IN UNITS OF MILLIWATTS/(CM)(K)

 VISC,MILLIPOISE  0.83847  0.83911  0.83975  0.84040  0.84105  0.84170  0.84236  0.84302

  WITH EQUILIBRIUM REACTIONS

 Cp, KJ/(KG)(K)   32.1860  32.0731  31.9617  31.8517  31.7431  31.6359  31.5300  31.4255
 CONDUCTIVITY     42.2968  42.1606  42.0263  41.8937  41.7630  41.6340  41.5068  41.3813
 PRANDTL NUMBER    0.6380   0.6383   0.6386   0.6390   0.6393   0.6396   0.6399   0.6402

  WITH FROZEN REACTIONS

 Cp, KJ/(KG)(K)   20.6461  20.6459  20.6457  20.6455  20.6454  20.6452  20.6450  20.6448
 CONDUCTIVITY     25.3991  25.4233  25.4476  25.4720  25.4964  25.5209  25.5454  25.5700
 PRANDTL NUMBER    0.6816   0.6814   0.6813   0.6812   0.6810   0.6809   0.6808   0.6806

 MOLE FRACTIONS

 *e-              0.00017  0.00018  0.00018  0.00018  0.00019  0.00019  0.00019  0.00019
 *H               0.97121  0.97146  0.97170  0.97195  0.97219  0.97243  0.97266  0.97289
 *H+              0.00017  0.00018  0.00018  0.00018  0.00018  0.00019  0.00019  0.00019
 *H-              0.00000  0.00000  0.00000  0.00000  0.00000  0.00000  0.00000  0.00001
 *H2              0.02844  0.02818  0.02793  0.02768  0.02743  0.02719  0.02695  0.02671
 *H2+             0.00001  0.00001  0.00001  0.00001  0.00001  0.00001  0.00001  0.00001

  * THERMODYNAMIC PROPERTIES FITTED TO 20000.K

 NOTE. WEIGHT FRACTION OF FUEL IN TOTAL FUELS AND OF OXIDANT IN TOTAL OXIDANTS









               THERMODYNAMIC EQUILIBRIUM PROPERTIES AT ASSIGNED

                           TEMPERATURE AND PRESSURE

 CASE =                

             REACTANT                    WT FRACTION      ENERGY      TEMP
                                          (SEE NOTE)     KJ/KG-MOL      K  
             H2                           1.0000000         0.000      0.000

 O/F=    0.00000  %FUEL=100.000000  R,EQ.RATIO= 0.000000  PHI,EQ.RATIO= 0.000000

 THERMODYNAMIC PROPERTIES

 P, BAR            60.000   60.000   60.000   60.000   60.000   60.000   60.000   67.000
 T, K             7730.00  7740.00  7750.00  7760.00  7770.00  7780.00  7790.00  7650.00
 RHO, KG/CU M    9.6569-2 9.6422-2 9.6275-2 9.6130-2 9.5984-2 9.5840-2 9.5696-2 1.0951-1
 H, KJ/KG        357958.3 358271.0 358582.7 358893.4 359203.2 359511.9 359819.7 354053.1
 U, KJ/KG        295826.4 296044.4 296261.5 296477.7 296693.0 296907.5 297121.1 292868.8
 G, KJ/KG       -769828.1-771287.3-772746.9-774206.9-775667.3-777128.0-778589.2-751407.5
 S, KJ/(KG)(K)   145.8973 145.9378 145.9780 146.0181 146.0580 146.0977 146.1372 144.5047

 M, (1/n)           1.034    1.034    1.034    1.034    1.033    1.033    1.033    1.040
 (dLV/dLP)t      -1.02457 -1.02438 -1.02418 -1.02399 -1.02380 -1.02361 -1.02342 -1.02881
 (dLV/dLT)p        1.1789   1.1773   1.1757   1.1741   1.1725   1.1710   1.1694   1.2115
 Cp, KJ/(KG)(K)   31.3223  31.2204  31.1198  31.0206  30.9225  30.8258  30.7303  33.2355
 GAMMAs            1.4972   1.4982   1.4993   1.5003   1.5013   1.5022   1.5032   1.4801
 SON VEL,M/SEC     9645.0   9655.6   9666.2   9676.8   9687.3   9697.8   9708.2   9516.3

 TRANSPORT PROPERTIES (GASES ONLY)
   CONDUCTIVITY IN UNITS OF MILLIWATTS/(CM)(K)

 VISC,MILLIPOISE  0.84368  0.84434  0.84501  0.84568  0.84635  0.84702  0.84770  0.84317

  WITH EQUILIBRIUM REACTIONS

 Cp, KJ/(KG)(K)   31.3223  31.2204  31.1198  31.0206  30.9225  30.8258  30.7303  33.2355
 CONDUCTIVITY     41.2576  41.1356  41.0152  40.8965  40.7795  40.6641  40.5503  44.0481
 PRANDTL NUMBER    0.6405   0.6408   0.6411   0.6415   0.6418   0.6421   0.6424   0.6362

  WITH FROZEN REACTIONS

 Cp, KJ/(KG)(K)   20.6447  20.6445  20.6443  20.6441  20.6440  20.6438  20.6436  20.6466
 CONDUCTIVITY     25.5947  25.6194  25.6442  25.6690  25.6939  25.7188  25.7438  25.4854
 PRANDTL NUMBER    0.6805   0.6804   0.6803   0.6801   0.6800   0.6799   0.6798   0.6831

 MOLE FRACTIONS

 *e-              0.00020  0.00020  0.00020  0.00021  0.00021  0.00021  0.00022  0.00016
 *H               0.97312  0.97335  0.97358  0.97380  0.97402  0.97423  0.97445  0.96811
 *H+              0.00020  0.00020  0.00020  0.00021  0.00021  0.00021  0.00021  0.00016
 *H-              0.00001  0.00001  0.00001  0.00001  0.00001  0.00001  0.00001  0.00000
 *H2              0.02647  0.02624  0.02601  0.02578  0.02555  0.02533  0.02511  0.03155
 *H2+             0.00001  0.00001  0.00001  0.00001  0.00001  0.00001  0.00001  0.00001

  * THERMODYNAMIC PROPERTIES FITTED TO 20000.K

 NOTE. WEIGHT FRACTION OF FUEL IN TOTAL FUELS AND OF OXIDANT IN TOTAL OXIDANTS









               THERMODYNAMIC EQUILIBRIUM PROPERTIES AT ASSIGNED

                           TEMPERATURE AND PRESSURE

 CASE =                

             REACTANT                    WT FRACTION      ENERGY      TEMP
                                          (SEE NOTE)     KJ/KG-MOL      K  
             H2                           1.0000000         0.000      0.000

 O/F=    0.00000  %FUEL=100.000000  R,EQ.RATIO= 0.000000  PHI,EQ.RATIO= 0.000000

 THERMODYNAMIC PROPERTIES

 P, BAR            67.000   67.000   67.000   67.000   67.000   67.000   67.000   67.000
 T, K             7660.00  7670.00  7680.00  7690.00  7700.00  7710.00  7720.00  7730.00
 RHO, KG/CU M    1.0933-1 1.0916-1 1.0899-1 1.0882-1 1.0865-1 1.0848-1 1.0831-1 1.0814-1
 H, KJ/KG        354384.8 354715.4 355044.7 355372.8 355699.8 356025.6 356350.2 356673.8
 U, KJ/KG        293103.7 293337.5 293570.3 293802.0 294032.6 294262.2 294490.8 294718.3
 G, KJ/KG       -752852.8-754298.4-755744.6-757191.1-758638.1-760085.5-761533.3-762981.6
 S, KJ/(KG)(K)   144.5480 144.5911 144.6340 144.6767 144.7192 144.7615 144.8036 144.8455

 M, (1/n)           1.039    1.039    1.039    1.038    1.038    1.038    1.038    1.037
 (dLV/dLP)t      -1.02858 -1.02835 -1.02813 -1.02790 -1.02768 -1.02746 -1.02724 -1.02703
 (dLV/dLT)p        1.2095   1.2076   1.2057   1.2039   1.2020   1.2002   1.1983   1.1966
 Cp, KJ/(KG)(K)   33.1130  32.9919  32.8724  32.7543  32.6377  32.5224  32.4086  32.2963
 GAMMAs            1.4812   1.4823   1.4834   1.4845   1.4855   1.4866   1.4877   1.4887
 SON VEL,M/SEC     9527.3   9538.4   9549.4   9560.3   9571.3   9582.2   9593.1   9603.9

 TRANSPORT PROPERTIES (GASES ONLY)
   CONDUCTIVITY IN UNITS OF MILLIWATTS/(CM)(K)

 VISC,MILLIPOISE  0.84379  0.84440  0.84502  0.84565  0.84627  0.84690  0.84753  0.84817

  WITH EQUILIBRIUM REACTIONS

 Cp, KJ/(KG)(K)   33.1130  32.9919  32.8724  32.7543  32.6377  32.5224  32.4086  32.2963
 CONDUCTIVITY     43.8976  43.7491  43.6025  43.4578  43.3150  43.1741  43.0350  42.8978
 PRANDTL NUMBER    0.6365   0.6368   0.6371   0.6374   0.6377   0.6380   0.6383   0.6386

  WITH FROZEN REACTIONS

 Cp, KJ/(KG)(K)   20.6464  20.6462  20.6460  20.6458  20.6456  20.6454  20.6452  20.6450
 CONDUCTIVITY     25.5091  25.5328  25.5566  25.5804  25.6043  25.6283  25.6523  25.6764
 PRANDTL NUMBER    0.6829   0.6828   0.6827   0.6825   0.6824   0.6822   0.6821   0.6820

 MOLE FRACTIONS

 *e-              0.00017  0.00017  0.00017  0.00018  0.00018  0.00018  0.00018  0.00019
 *H               0.96839  0.96866  0.96893  0.96919  0.96946  0.96972  0.96998  0.97023
 *H+              0.00017  0.00017  0.00017  0.00017  0.00018  0.00018  0.00018  0.00019
 *H-              0.00000  0.00001  0.00001  0.00001  0.00001  0.00001  0.00001  0.00001
 *H2              0.03127  0.03099  0.03072  0.03044  0.03018  0.02991  0.02965  0.02939
 *H2+             0.00001  0.00001  0.00001  0.00001  0.00001  0.00001  0.00001  0.00001

  * THERMODYNAMIC PROPERTIES FITTED TO 20000.K

 NOTE. WEIGHT FRACTION OF FUEL IN TOTAL FUELS AND OF OXIDANT IN TOTAL OXIDANTS









               THERMODYNAMIC EQUILIBRIUM PROPERTIES AT ASSIGNED

                           TEMPERATURE AND PRESSURE

 CASE =                

             REACTANT                    WT FRACTION      ENERGY      TEMP
                                          (SEE NOTE)     KJ/KG-MOL      K  
             H2                           1.0000000         0.000      0.000

 O/F=    0.00000  %FUEL=100.000000  R,EQ.RATIO= 0.000000  PHI,EQ.RATIO= 0.000000

 THERMODYNAMIC PROPERTIES

 P, BAR            67.000   67.000   67.000   67.000   67.000   67.000   74.000   74.000
 T, K             7740.00  7750.00  7760.00  7770.00  7780.00  7790.00  7650.00  7660.00
 RHO, KG/CU M    1.0798-1 1.0781-1 1.0764-1 1.0748-1 1.0731-1 1.0715-1 1.2131-1 1.2111-1
 H, KJ/KG        356996.2 357317.5 357637.7 357956.8 358274.9 358591.9 352714.5 353056.4
 U, KJ/KG        294944.9 295170.5 295395.1 295618.7 295841.4 296063.1 291712.7 291956.5
 G, KJ/KG       -764430.2-765879.3-767328.8-768778.7-770229.0-771679.8-745336.4-746772.0
 S, KJ/(KG)(K)   144.8871 144.9286 144.9699 145.0110 145.0519 145.0926 143.5361 143.5807

 M, (1/n)           1.037    1.037    1.037    1.036    1.036    1.036    1.043    1.042
 (dLV/dLP)t      -1.02681 -1.02660 -1.02639 -1.02618 -1.02598 -1.02577 -1.03132 -1.03108
 (dLV/dLT)p        1.1948   1.1930   1.1913   1.1896   1.1879   1.1862   1.2297   1.2276
 Cp, KJ/(KG)(K)   32.1852  32.0756  31.9673  31.8604  31.7547  31.6504  34.2476  34.1162
 GAMMAs            1.4898   1.4908   1.4919   1.4929   1.4939   1.4949   1.4723   1.4734
 SON VEL,M/SEC     9614.7   9625.5   9636.2   9647.0   9657.6   9668.3   9476.8   9488.0

 TRANSPORT PROPERTIES (GASES ONLY)
   CONDUCTIVITY IN UNITS OF MILLIWATTS/(CM)(K)

 VISC,MILLIPOISE  0.84880  0.84944  0.85009  0.85073  0.85138  0.85203  0.84776  0.84834

  WITH EQUILIBRIUM REACTIONS

 Cp, KJ/(KG)(K)   32.1852  32.0756  31.9673  31.8604  31.7547  31.6504  34.2476  34.1162
 CONDUCTIVITY     42.7623  42.6287  42.4968  42.3667  42.2383  42.1116  45.7458  45.5820
 PRANDTL NUMBER    0.6389   0.6392   0.6395   0.6398   0.6401   0.6404   0.6347   0.6349

  WITH FROZEN REACTIONS

 Cp, KJ/(KG)(K)   20.6448  20.6446  20.6444  20.6442  20.6439  20.6437  20.6473  20.6470
 CONDUCTIVITY     25.7005  25.7248  25.7490  25.7734  25.7978  25.8222  25.5701  25.5932
 PRANDTL NUMBER    0.6818   0.6817   0.6816   0.6814   0.6813   0.6812   0.6845   0.6844

 MOLE FRACTIONS

 *e-              0.00019  0.00019  0.00019  0.00020  0.00020  0.00020  0.00016  0.00016
 *H               0.97048  0.97073  0.97098  0.97122  0.97146  0.97170  0.96505  0.96535
 *H+              0.00019  0.00019  0.00019  0.00020  0.00020  0.00020  0.00016  0.00016
 *H-              0.00001  0.00001  0.00001  0.00001  0.00001  0.00001  0.00001  0.00001
 *H2              0.02913  0.02887  0.02862  0.02837  0.02812  0.02788  0.03463  0.03432
 *H2+             0.00001  0.00001  0.00001  0.00001  0.00001  0.00001  0.00001  0.00001

  * THERMODYNAMIC PROPERTIES FITTED TO 20000.K

 NOTE. WEIGHT FRACTION OF FUEL IN TOTAL FUELS AND OF OXIDANT IN TOTAL OXIDANTS









               THERMODYNAMIC EQUILIBRIUM PROPERTIES AT ASSIGNED

                           TEMPERATURE AND PRESSURE

 CASE =                

             REACTANT                    WT FRACTION      ENERGY      TEMP
                                          (SEE NOTE)     KJ/KG-MOL      K  
             H2                           1.0000000         0.000      0.000

 O/F=    0.00000  %FUEL=100.000000  R,EQ.RATIO= 0.000000  PHI,EQ.RATIO= 0.000000

 THERMODYNAMIC PROPERTIES

 P, BAR            74.000   74.000   74.000   74.000   74.000   74.000   74.000   74.000
 T, K             7670.00  7680.00  7690.00  7700.00  7710.00  7720.00  7730.00  7740.00
 RHO, KG/CU M    1.2092-1 1.2073-1 1.2053-1 1.2034-1 1.2015-1 1.1996-1 1.1978-1 1.1959-1
 H, KJ/KG        353396.9 353736.1 354074.0 354410.7 354746.1 355080.4 355413.3 355745.1
 U, KJ/KG        292199.2 292440.7 292681.0 292920.3 293158.4 293395.4 293631.3 293866.1
 G, KJ/KG       -748208.0-749644.5-751081.4-752518.7-753956.5-755394.8-756833.4-758272.5
 S, KJ/(KG)(K)   143.6251 143.6693 143.7133 143.7571 143.8006 143.8439 143.8870 143.9299

 M, (1/n)           1.042    1.042    1.041    1.041    1.041    1.041    1.040    1.040
 (dLV/dLP)t      -1.03083 -1.03059 -1.03035 -1.03011 -1.02987 -1.02964 -1.02941 -1.02918
 (dLV/dLT)p        1.2256   1.2235   1.2215   1.2195   1.2176   1.2156   1.2137   1.2118
 Cp, KJ/(KG)(K)   33.9862  33.8578  33.7310  33.6056  33.4817  33.3593  33.2384  33.1189
 GAMMAs            1.4745   1.4756   1.4767   1.4778   1.4789   1.4799   1.4810   1.4821
 SON VEL,M/SEC     9499.2   9510.3   9521.4   9532.5   9543.6   9554.6   9565.6   9576.5

 TRANSPORT PROPERTIES (GASES ONLY)
   CONDUCTIVITY IN UNITS OF MILLIWATTS/(CM)(K)

 VISC,MILLIPOISE  0.84894  0.84953  0.85013  0.85073  0.85133  0.85194  0.85255  0.85316

  WITH EQUILIBRIUM REACTIONS

 Cp, KJ/(KG)(K)   33.9862  33.8578  33.7310  33.6056  33.4817  33.3593  33.2384  33.1189
 CONDUCTIVITY     45.4202  45.2604  45.1027  44.9469  44.7931  44.6412  44.4912  44.3432
 PRANDTL NUMBER    0.6352   0.6355   0.6358   0.6361   0.6363   0.6366   0.6369   0.6372

  WITH FROZEN REACTIONS

 Cp, KJ/(KG)(K)   20.6468  20.6465  20.6463  20.6460  20.6458  20.6456  20.6453  20.6451
 CONDUCTIVITY     25.6163  25.6395  25.6628  25.6861  25.7095  25.7330  25.7566  25.7802
 PRANDTL NUMBER    0.6842   0.6841   0.6839   0.6838   0.6837   0.6835   0.6834   0.6832

 MOLE FRACTIONS

 *e-              0.00016  0.00016  0.00017  0.00017  0.00017  0.00017  0.00018  0.00018
 *H               0.96565  0.96594  0.96624  0.96652  0.96681  0.96709  0.96737  0.96765
 *H+              0.00016  0.00016  0.00017  0.00017  0.00017  0.00017  0.00018  0.00018
 *H-              0.00001  0.00001  0.00001  0.00001  0.00001  0.00001  0.00001  0.00001
 *H2              0.03402  0.03372  0.03342  0.03313  0.03284  0.03255  0.03226  0.03198
 *H2+             0.00001  0.00001  0.00001  0.00001  0.00001  0.00001  0.00001  0.00001

  * THERMODYNAMIC PROPERTIES FITTED TO 20000.K

 NOTE. WEIGHT FRACTION OF FUEL IN TOTAL FUELS AND OF OXIDANT IN TOTAL OXIDANTS









               THERMODYNAMIC EQUILIBRIUM PROPERTIES AT ASSIGNED

                           TEMPERATURE AND PRESSURE

 CASE =                

             REACTANT                    WT FRACTION      ENERGY      TEMP
                                          (SEE NOTE)     KJ/KG-MOL      K  
             H2                           1.0000000         0.000      0.000

 O/F=    0.00000  %FUEL=100.000000  R,EQ.RATIO= 0.000000  PHI,EQ.RATIO= 0.000000

 THERMODYNAMIC PROPERTIES

 P, BAR            74.000   74.000   74.000   74.000   74.000   82.500   82.500   82.500
 T, K             7750.00  7760.00  7770.00  7780.00  7790.00  7650.00  7660.00  7670.00
 RHO, KG/CU M    1.1940-1 1.1922-1 1.1903-1 1.1885-1 1.1866-1 1.3572-1 1.3550-1 1.3528-1
 H, KJ/KG        356075.7 356405.1 356733.4 357060.5 357386.5 351123.6 351477.2 351829.4
 U, KJ/KG        294099.9 294332.7 294564.4 294795.0 295024.7 290338.8 290593.0 290846.0
 G, KJ/KG       -759712.0-761152.0-762592.3-764033.1-765474.3-738715.1-740140.0-741565.3
 S, KJ/(KG)(K)   143.9726 144.0151 144.0574 144.0994 144.1413 142.4626 142.5088 142.5547

 M, (1/n)           1.040    1.039    1.039    1.039    1.039    1.046    1.046    1.046
 (dLV/dLP)t      -1.02895 -1.02873 -1.02850 -1.02828 -1.02806 -1.03427 -1.03400 -1.03374
 (dLV/dLT)p        1.2099   1.2080   1.2061   1.2043   1.2025   1.2511   1.2489   1.2466
 Cp, KJ/(KG)(K)   33.0008  32.8842  32.7689  32.6550  32.5425  35.4281  35.2866  35.1468
 GAMMAs            1.4831   1.4842   1.4853   1.4863   1.4873   1.4637   1.4648   1.4659
 SON VEL,M/SEC     9587.5   9598.3   9609.2   9620.0   9630.8   9432.4   9443.7   9455.0

 TRANSPORT PROPERTIES (GASES ONLY)
   CONDUCTIVITY IN UNITS OF MILLIWATTS/(CM)(K)

 VISC,MILLIPOISE  0.85377  0.85439  0.85501  0.85564  0.85626  0.85317  0.85373  0.85429

  WITH EQUILIBRIUM REACTIONS

 Cp, KJ/(KG)(K)   33.0008  32.8842  32.7689  32.6550  32.5425  35.4281  35.2866  35.1468
 CONDUCTIVITY     44.1970  44.0527  43.9103  43.7696  43.6308  47.7385  47.5595  47.3827
 PRANDTL NUMBER    0.6375   0.6378   0.6381   0.6384   0.6387   0.6332   0.6334   0.6337

  WITH FROZEN REACTIONS

 Cp, KJ/(KG)(K)   20.6448  20.6446  20.6444  20.6441  20.6439  20.6480  20.6477  20.6474
 CONDUCTIVITY     25.8039  25.8276  25.8514  25.8753  25.8992  25.6708  25.6932  25.7156
 PRANDTL NUMBER    0.6831   0.6829   0.6828   0.6827   0.6825   0.6862   0.6861   0.6859

 MOLE FRACTIONS

 *e-              0.00018  0.00018  0.00019  0.00019  0.00019  0.00015  0.00015  0.00015
 *H               0.96792  0.96819  0.96846  0.96872  0.96898  0.96138  0.96171  0.96204
 *H+              0.00018  0.00018  0.00019  0.00019  0.00019  0.00015  0.00015  0.00015
 *H-              0.00001  0.00001  0.00001  0.00001  0.00001  0.00001  0.00001  0.00001
 *H2              0.03170  0.03143  0.03116  0.03089  0.03062  0.03831  0.03797  0.03764
 *H2+             0.00001  0.00001  0.00001  0.00001  0.00001  0.00001  0.00001  0.00001

  * THERMODYNAMIC PROPERTIES FITTED TO 20000.K

 NOTE. WEIGHT FRACTION OF FUEL IN TOTAL FUELS AND OF OXIDANT IN TOTAL OXIDANTS









               THERMODYNAMIC EQUILIBRIUM PROPERTIES AT ASSIGNED

                           TEMPERATURE AND PRESSURE

 CASE =                

             REACTANT                    WT FRACTION      ENERGY      TEMP
                                          (SEE NOTE)     KJ/KG-MOL      K  
             H2                           1.0000000         0.000      0.000

 O/F=    0.00000  %FUEL=100.000000  R,EQ.RATIO= 0.000000  PHI,EQ.RATIO= 0.000000

 THERMODYNAMIC PROPERTIES

 P, BAR            82.500   82.500   82.500   82.500   82.500   82.500   82.500   82.500
 T, K             7680.00  7690.00  7700.00  7710.00  7720.00  7730.00  7740.00  7750.00
 RHO, KG/CU M    1.3506-1 1.3485-1 1.3463-1 1.3441-1 1.3420-1 1.3398-1 1.3377-1 1.3356-1
 H, KJ/KG        352180.1 352529.5 352877.6 353224.3 353569.6 353913.7 354256.5 354597.9
 U, KJ/KG        291097.7 291348.2 291597.5 291845.6 292092.4 292338.1 292582.7 292826.1
 G, KJ/KG       -742991.0-744417.3-745844.0-747271.1-748698.7-750126.7-751555.2-752984.1
 S, KJ/(KG)(K)   142.6004 142.6459 142.6911 142.7361 142.7809 142.8254 142.8697 142.9138

 M, (1/n)           1.045    1.045    1.045    1.044    1.044    1.044    1.043    1.043
 (dLV/dLP)t      -1.03348 -1.03322 -1.03296 -1.03271 -1.03246 -1.03221 -1.03196 -1.03171
 (dLV/dLT)p        1.2444   1.2423   1.2401   1.2380   1.2359   1.2338   1.2317   1.2297
 Cp, KJ/(KG)(K)   35.0086  34.8719  34.7368  34.6033  34.4712  34.3407  34.2117  34.0842
 GAMMAs            1.4670   1.4681   1.4693   1.4704   1.4714   1.4725   1.4736   1.4747
 SON VEL,M/SEC     9466.3   9477.5   9488.7   9499.9   9511.1   9522.2   9533.3   9544.4

 TRANSPORT PROPERTIES (GASES ONLY)
   CONDUCTIVITY IN UNITS OF MILLIWATTS/(CM)(K)

 VISC,MILLIPOISE  0.85486  0.85542  0.85599  0.85657  0.85714  0.85772  0.85831  0.85889

  WITH EQUILIBRIUM REACTIONS

 Cp, KJ/(KG)(K)   35.0086  34.8719  34.7368  34.6033  34.4712  34.3407  34.2117  34.0842
 CONDUCTIVITY     47.2081  47.0355  46.8650  46.6965  46.5301  46.3657  46.2034  46.0430
 PRANDTL NUMBER    0.6339   0.6342   0.6345   0.6347   0.6350   0.6353   0.6355   0.6358

  WITH FROZEN REACTIONS

 Cp, KJ/(KG)(K)   20.6472  20.6469  20.6466  20.6463  20.6460  20.6458  20.6455  20.6452
 CONDUCTIVITY     25.7382  25.7608  25.7835  25.8063  25.8291  25.8520  25.8750  25.8981
 PRANDTL NUMBER    0.6858   0.6856   0.6855   0.6853   0.6851   0.6850   0.6848   0.6847

 MOLE FRACTIONS

 *e-              0.00016  0.00016  0.00016  0.00016  0.00016  0.00017  0.00017  0.00017
 *H               0.96237  0.96269  0.96301  0.96332  0.96363  0.96394  0.96424  0.96454
 *H+              0.00015  0.00016  0.00016  0.00016  0.00016  0.00017  0.00017  0.00017
 *H-              0.00001  0.00001  0.00001  0.00001  0.00001  0.00001  0.00001  0.00001
 *H2              0.03731  0.03699  0.03666  0.03634  0.03603  0.03572  0.03541  0.03510
 *H2+             0.00001  0.00001  0.00001  0.00001  0.00001  0.00001  0.00001  0.00001

  * THERMODYNAMIC PROPERTIES FITTED TO 20000.K

 NOTE. WEIGHT FRACTION OF FUEL IN TOTAL FUELS AND OF OXIDANT IN TOTAL OXIDANTS









               THERMODYNAMIC EQUILIBRIUM PROPERTIES AT ASSIGNED

                           TEMPERATURE AND PRESSURE

 CASE =                

             REACTANT                    WT FRACTION      ENERGY      TEMP
                                          (SEE NOTE)     KJ/KG-MOL      K  
             H2                           1.0000000         0.000      0.000

 O/F=    0.00000  %FUEL=100.000000  R,EQ.RATIO= 0.000000  PHI,EQ.RATIO= 0.000000

 THERMODYNAMIC PROPERTIES

 P, BAR            82.500   82.500   82.500   82.500   91.000   91.000   91.000   91.000
 T, K             7760.00  7770.00  7780.00  7790.00  7650.00  7660.00  7670.00  7680.00
 RHO, KG/CU M    1.3334-1 1.3313-1 1.3292-1 1.3272-1 1.5023-1 1.4998-1 1.4974-1 1.4949-1
 H, KJ/KG        354938.2 355277.1 355614.8 355951.3 349568.8 349933.6 350296.9 350658.8
 U, KJ/KG        293068.4 293309.5 293549.5 293788.5 288996.2 289260.4 289523.2 289784.8
 G, KJ/KG       -754413.5-755843.3-757273.5-758704.2-732764.7-734179.8-735595.3-737011.3
 S, KJ/(KG)(K)   142.9577 143.0013 143.0448 143.0880 141.4815 141.5292 141.5766 141.6237

 M, (1/n)           1.043    1.043    1.042    1.042    1.050    1.050    1.049    1.049
 (dLV/dLP)t      -1.03147 -1.03123 -1.03099 -1.03076 -1.03710 -1.03682 -1.03654 -1.03626
 (dLV/dLT)p        1.2277   1.2257   1.2237   1.2217   1.2717   1.2693   1.2670   1.2646
 Cp, KJ/(KG)(K)   33.9582  33.8336  33.7105  33.5888  36.5574  36.4069  36.2581  36.1109
 GAMMAs            1.4758   1.4768   1.4779   1.4790   1.4560   1.4571   1.4582   1.4594
 SON VEL,M/SEC     9555.4   9566.4   9577.4   9588.3   9391.1   9402.6   9414.0   9425.4

 TRANSPORT PROPERTIES (GASES ONLY)
   CONDUCTIVITY IN UNITS OF MILLIWATTS/(CM)(K)

 VISC,MILLIPOISE  0.85948  0.86008  0.86067  0.86127  0.85843  0.85896  0.85950  0.86003

  WITH EQUILIBRIUM REACTIONS

 Cp, KJ/(KG)(K)   33.9582  33.8336  33.7105  33.5888  36.5574  36.4069  36.2581  36.1109
 CONDUCTIVITY     45.8845  45.7280  45.5735  45.4208  49.6589  49.4660  49.2753  49.0868
 PRANDTL NUMBER    0.6361   0.6364   0.6366   0.6369   0.6320   0.6322   0.6324   0.6327

  WITH FROZEN REACTIONS

 Cp, KJ/(KG)(K)   20.6449  20.6447  20.6444  20.6441  20.6488  20.6484  20.6481  20.6478
 CONDUCTIVITY     25.9212  25.9444  25.9676  25.9910  25.7692  25.7909  25.8128  25.8347
 PRANDTL NUMBER    0.6845   0.6844   0.6842   0.6841   0.6879   0.6877   0.6875   0.6874

 MOLE FRACTIONS

 *e-              0.00017  0.00018  0.00018  0.00018  0.00014  0.00014  0.00015  0.00015
 *H               0.96484  0.96513  0.96542  0.96571  0.95777  0.95813  0.95848  0.95884
 *H+              0.00017  0.00018  0.00018  0.00018  0.00014  0.00014  0.00014  0.00015
 *H-              0.00001  0.00001  0.00001  0.00001  0.00001  0.00001  0.00001  0.00001
 *H2              0.03480  0.03450  0.03420  0.03391  0.04194  0.04158  0.04121  0.04085
 *H2+             0.00001  0.00001  0.00001  0.00001  0.00001  0.00001  0.00001  0.00001

  * THERMODYNAMIC PROPERTIES FITTED TO 20000.K

 NOTE. WEIGHT FRACTION OF FUEL IN TOTAL FUELS AND OF OXIDANT IN TOTAL OXIDANTS









               THERMODYNAMIC EQUILIBRIUM PROPERTIES AT ASSIGNED

                           TEMPERATURE AND PRESSURE

 CASE =                

             REACTANT                    WT FRACTION      ENERGY      TEMP
                                          (SEE NOTE)     KJ/KG-MOL      K  
             H2                           1.0000000         0.000      0.000

 O/F=    0.00000  %FUEL=100.000000  R,EQ.RATIO= 0.000000  PHI,EQ.RATIO= 0.000000

 THERMODYNAMIC PROPERTIES

 P, BAR            91.000   91.000   91.000   91.000   91.000   91.000   91.000   91.000
 T, K             7690.00  7700.00  7710.00  7720.00  7730.00  7740.00  7750.00  7760.00
 RHO, KG/CU M    1.4924-1 1.4900-1 1.4876-1 1.4851-1 1.4827-1 1.4803-1 1.4779-1 1.4756-1
 H, KJ/KG        351019.1 351378.1 351735.6 352091.7 352446.3 352799.6 353151.6 353502.1
 U, KJ/KG        290045.0 290303.9 290561.5 290817.9 291073.0 291326.9 291579.5 291830.9
 G, KJ/KG       -738427.8-739844.7-741262.1-742680.0-744098.3-745517.1-746936.4-748356.1
 S, KJ/(KG)(K)   141.6706 141.7172 141.7636 141.8098 141.8557 141.9014 141.9468 141.9920

 M, (1/n)           1.049    1.048    1.048    1.048    1.047    1.047    1.047    1.046
 (dLV/dLP)t      -1.03599 -1.03571 -1.03544 -1.03518 -1.03491 -1.03465 -1.03438 -1.03413
 (dLV/dLT)p        1.2623   1.2600   1.2577   1.2555   1.2532   1.2510   1.2488   1.2467
 Cp, KJ/(KG)(K)   35.9653  35.8213  35.6790  35.5382  35.3989  35.2612  35.1251  34.9905
 GAMMAs            1.4605   1.4616   1.4627   1.4638   1.4649   1.4660   1.4671   1.4682
 SON VEL,M/SEC     9436.7   9448.1   9459.4   9470.6   9481.9   9493.1   9504.3   9515.4

 TRANSPORT PROPERTIES (GASES ONLY)
   CONDUCTIVITY IN UNITS OF MILLIWATTS/(CM)(K)

 VISC,MILLIPOISE  0.86057  0.86111  0.86166  0.86221  0.86276  0.86332  0.86388  0.86444

  WITH EQUILIBRIUM REACTIONS

 Cp, KJ/(KG)(K)   35.9653  35.8213  35.6790  35.5382  35.3989  35.2612  35.1251  34.9905
 CONDUCTIVITY     48.9005  48.7164  48.5344  48.3545  48.1767  48.0010  47.8274  47.6558
 PRANDTL NUMBER    0.6329   0.6332   0.6334   0.6337   0.6339   0.6342   0.6344   0.6347

  WITH FROZEN REACTIONS

 Cp, KJ/(KG)(K)   20.6475  20.6472  20.6468  20.6465  20.6462  20.6459  20.6456  20.6453
 CONDUCTIVITY     25.8567  25.8787  25.9009  25.9231  25.9454  25.9678  25.9903  26.0128
 PRANDTL NUMBER    0.6872   0.6870   0.6869   0.6867   0.6865   0.6864   0.6862   0.6861

 MOLE FRACTIONS

 *e-              0.00015  0.00015  0.00015  0.00016  0.00016  0.00016  0.00016  0.00017
 *H               0.95919  0.95953  0.95988  0.96022  0.96055  0.96088  0.96121  0.96153
 *H+              0.00015  0.00015  0.00015  0.00016  0.00016  0.00016  0.00016  0.00017
 *H-              0.00001  0.00001  0.00001  0.00001  0.00001  0.00001  0.00001  0.00001
 *H2              0.04050  0.04015  0.03980  0.03946  0.03912  0.03878  0.03845  0.03812
 *H2+             0.00001  0.00001  0.00001  0.00001  0.00001  0.00001  0.00001  0.00001

  * THERMODYNAMIC PROPERTIES FITTED TO 20000.K

 NOTE. WEIGHT FRACTION OF FUEL IN TOTAL FUELS AND OF OXIDANT IN TOTAL OXIDANTS









               THERMODYNAMIC EQUILIBRIUM PROPERTIES AT ASSIGNED

                           TEMPERATURE AND PRESSURE

 CASE =                

             REACTANT                    WT FRACTION      ENERGY      TEMP
                                          (SEE NOTE)     KJ/KG-MOL      K  
             H2                           1.0000000         0.000      0.000

 O/F=    0.00000  %FUEL=100.000000  R,EQ.RATIO= 0.000000  PHI,EQ.RATIO= 0.000000

 THERMODYNAMIC PROPERTIES

 P, BAR            91.000   91.000   91.000   100.00   100.00   100.00   100.00   100.00
 T, K             7770.00  7780.00  7790.00  7650.00  7660.00  7670.00  7680.00  7690.00
 RHO, KG/CU M    1.4732-1 1.4708-1 1.4685-1 1.6569-1 1.6541-1 1.6513-1 1.6486-1 1.6458-1
 H, KJ/KG        353851.4 354199.3 354545.9 347960.0 348336.2 348710.8 349083.9 349455.4
 U, KJ/KG        292081.2 292330.2 292578.1 287607.1 287881.4 288154.3 288425.8 288695.8
 G, KJ/KG       -749776.2-751196.8-752617.8-727062.3-728467.8-729873.8-731280.3-732687.3
 S, KJ/(KG)(K)   142.0370 142.0818 142.1263 140.5258 140.5749 140.6238 140.6724 140.7208

 M, (1/n)           1.046    1.046    1.045    1.054    1.054    1.053    1.053    1.052
 (dLV/dLP)t      -1.03387 -1.03361 -1.03336 -1.03999 -1.03969 -1.03939 -1.03910 -1.03881
 (dLV/dLT)p        1.2445   1.2424   1.2403   1.2927   1.2902   1.2877   1.2852   1.2827
 Cp, KJ/(KG)(K)   34.8573  34.7257  34.5956  37.6999  37.5408  37.3833  37.2275  37.0734
 GAMMAs            1.4692   1.4703   1.4714   1.4487   1.4498   1.4509   1.4521   1.4532
 SON VEL,M/SEC     9526.6   9537.7   9548.8   9350.6   9362.1   9373.6   9385.1   9396.5

 TRANSPORT PROPERTIES (GASES ONLY)
   CONDUCTIVITY IN UNITS OF MILLIWATTS/(CM)(K)

 VISC,MILLIPOISE  0.86500  0.86557  0.86614  0.86384  0.86434  0.86485  0.86535  0.86587

  WITH EQUILIBRIUM REACTIONS

 Cp, KJ/(KG)(K)   34.8573  34.7257  34.5956  37.6999  37.5408  37.3833  37.2275  37.0734
 CONDUCTIVITY     47.4862  47.3186  47.1531  51.6171  51.4106  51.2064  51.0044  50.8047
 PRANDTL NUMBER    0.6350   0.6352   0.6355   0.6309   0.6312   0.6314   0.6316   0.6318

  WITH FROZEN REACTIONS

 Cp, KJ/(KG)(K)   20.6450  20.6447  20.6443  20.6496  20.6492  20.6488  20.6485  20.6481
 CONDUCTIVITY     26.0354  26.0581  26.0808  25.8710  25.8921  25.9133  25.9346  25.9559
 PRANDTL NUMBER    0.6859   0.6858   0.6856   0.6895   0.6893   0.6891   0.6890   0.6888

 MOLE FRACTIONS

 *e-              0.00017  0.00017  0.00017  0.00013  0.00014  0.00014  0.00014  0.00014
 *H               0.96185  0.96217  0.96249  0.95399  0.95438  0.95477  0.95516  0.95554
 *H+              0.00017  0.00017  0.00017  0.00013  0.00014  0.00014  0.00014  0.00014
 *H-              0.00001  0.00001  0.00001  0.00001  0.00001  0.00001  0.00001  0.00001
 *H2              0.03779  0.03747  0.03715  0.04573  0.04533  0.04494  0.04455  0.04417
 *H2+             0.00001  0.00001  0.00001  0.00001  0.00001  0.00001  0.00001  0.00001

  * THERMODYNAMIC PROPERTIES FITTED TO 20000.K

 NOTE. WEIGHT FRACTION OF FUEL IN TOTAL FUELS AND OF OXIDANT IN TOTAL OXIDANTS









               THERMODYNAMIC EQUILIBRIUM PROPERTIES AT ASSIGNED

                           TEMPERATURE AND PRESSURE

 CASE =                

             REACTANT                    WT FRACTION      ENERGY      TEMP
                                          (SEE NOTE)     KJ/KG-MOL      K  
             H2                           1.0000000         0.000      0.000

 O/F=    0.00000  %FUEL=100.000000  R,EQ.RATIO= 0.000000  PHI,EQ.RATIO= 0.000000

 THERMODYNAMIC PROPERTIES

 P, BAR            100.00   100.00   100.00   100.00   100.00   100.00   100.00   100.00
 T, K             7700.00  7710.00  7720.00  7730.00  7740.00  7750.00  7760.00  7770.00
 RHO, KG/CU M    1.6431-1 1.6404-1 1.6377-1 1.6350-1 1.6323-1 1.6296-1 1.6269-1 1.6243-1
 H, KJ/KG        349825.4 350193.8 350560.8 350926.2 351290.2 351652.8 352013.9 352373.6
 U, KJ/KG        288964.5 289231.9 289497.9 289762.5 290025.9 290287.9 290548.6 290808.1
 G, KJ/KG       -734094.7-735502.7-736911.1-738319.9-739729.3-741139.1-742549.4-743960.1
 S, KJ/(KG)(K)   140.7688 140.8167 140.8642 140.9115 140.9586 141.0054 141.0520 141.0983

 M, (1/n)           1.052    1.052    1.051    1.051    1.050    1.050    1.050    1.049
 (dLV/dLP)t      -1.03852 -1.03824 -1.03795 -1.03767 -1.03739 -1.03711 -1.03684 -1.03657
 (dLV/dLT)p        1.2803   1.2779   1.2755   1.2731   1.2708   1.2684   1.2661   1.2638
 Cp, KJ/(KG)(K)   36.9209  36.7700  36.6208  36.4731  36.3270  36.1825  36.0396  35.8982
 GAMMAs            1.4543   1.4554   1.4565   1.4576   1.4587   1.4598   1.4609   1.4620
 SON VEL,M/SEC     9407.9   9419.3   9430.7   9442.1   9453.4   9464.7   9476.0   9487.2

 TRANSPORT PROPERTIES (GASES ONLY)
   CONDUCTIVITY IN UNITS OF MILLIWATTS/(CM)(K)

 VISC,MILLIPOISE  0.86638  0.86690  0.86742  0.86795  0.86847  0.86901  0.86954  0.87008

  WITH EQUILIBRIUM REACTIONS

 Cp, KJ/(KG)(K)   36.9209  36.7700  36.6208  36.4731  36.3270  36.1825  36.0396  35.8982
 CONDUCTIVITY     50.6072  50.4120  50.2189  50.0280  49.8392  49.6525  49.4680  49.2856
 PRANDTL NUMBER    0.6321   0.6323   0.6325   0.6328   0.6330   0.6333   0.6335   0.6337

  WITH FROZEN REACTIONS

 Cp, KJ/(KG)(K)   20.6478  20.6474  20.6471  20.6467  20.6464  20.6460  20.6457  20.6453
 CONDUCTIVITY     25.9774  25.9989  26.0205  26.0422  26.0640  26.0858  26.1077  26.1297
 PRANDTL NUMBER    0.6886   0.6885   0.6883   0.6881   0.6880   0.6878   0.6876   0.6875

 MOLE FRACTIONS

 *e-              0.00014  0.00015  0.00015  0.00015  0.00015  0.00016  0.00016  0.00016
 *H               0.95591  0.95628  0.95665  0.95701  0.95737  0.95773  0.95808  0.95843
 *H+              0.00014  0.00015  0.00015  0.00015  0.00015  0.00016  0.00016  0.00016
 *H-              0.00001  0.00001  0.00001  0.00001  0.00001  0.00001  0.00001  0.00001
 *H2              0.04379  0.04341  0.04304  0.04267  0.04231  0.04195  0.04159  0.04124
 *H2+             0.00001  0.00001  0.00001  0.00001  0.00001  0.00001  0.00001  0.00001

  * THERMODYNAMIC PROPERTIES FITTED TO 20000.K

 NOTE. WEIGHT FRACTION OF FUEL IN TOTAL FUELS AND OF OXIDANT IN TOTAL OXIDANTS









               THERMODYNAMIC EQUILIBRIUM PROPERTIES AT ASSIGNED

                           TEMPERATURE AND PRESSURE

 CASE =                

             REACTANT                    WT FRACTION      ENERGY      TEMP
                                          (SEE NOTE)     KJ/KG-MOL      K  
             H2                           1.0000000         0.000      0.000

 O/F=    0.00000  %FUEL=100.000000  R,EQ.RATIO= 0.000000  PHI,EQ.RATIO= 0.000000

 THERMODYNAMIC PROPERTIES

 P, BAR            100.00   100.00   110.00   110.00   110.00   110.00   110.00   110.00
 T, K             7780.00  7790.00  7650.00  7660.00  7670.00  7680.00  7690.00  7700.00
 RHO, KG/CU M    1.6217-1 1.6190-1 1.8298-1 1.8267-1 1.8236-1 1.8205-1 1.8174-1 1.8143-1
 H, KJ/KG        352731.9 353088.7 346215.8 346604.0 346990.6 347375.5 347758.8 348140.5
 U, KJ/KG        291066.3 291323.3 286101.2 286386.2 286669.7 286951.7 287232.2 287511.3
 G, KJ/KG       -745371.4-746783.0-721321.3-722717.0-724113.3-725510.0-726907.2-728305.0
 S, KJ/(KG)(K)   141.1444 141.1902 139.5473 139.5980 139.6485 139.6986 139.7485 139.7981

 M, (1/n)           1.049    1.049    1.058    1.058    1.057    1.057    1.056    1.056
 (dLV/dLP)t      -1.03630 -1.03603 -1.04307 -1.04275 -1.04244 -1.04213 -1.04182 -1.04152
 (dLV/dLT)p        1.2616   1.2594   1.3151   1.3124   1.3098   1.3072   1.3045   1.3020
 Cp, KJ/(KG)(K)   35.7583  35.6200  38.9085  38.7408  38.5747  38.4103  38.2477  38.0866
 GAMMAs            1.4630   1.4641   1.4414   1.4425   1.4437   1.4448   1.4459   1.4470
 SON VEL,M/SEC     9498.4   9509.6   9308.6   9320.3   9331.8   9343.4   9355.0   9366.5

 TRANSPORT PROPERTIES (GASES ONLY)
   CONDUCTIVITY IN UNITS OF MILLIWATTS/(CM)(K)

 VISC,MILLIPOISE  0.87062  0.87117  0.86966  0.87014  0.87061  0.87109  0.87157  0.87206

  WITH EQUILIBRIUM REACTIONS

 Cp, KJ/(KG)(K)   35.7583  35.6200  38.9085  38.7408  38.5747  38.4103  38.2477  38.0866
 CONDUCTIVITY     49.1052  48.9269  53.7067  53.4864  53.2685  53.0528  52.8394  52.6284
 PRANDTL NUMBER    0.6340   0.6342   0.6300   0.6302   0.6305   0.6307   0.6309   0.6311

  WITH FROZEN REACTIONS

 Cp, KJ/(KG)(K)   20.6450  20.6446  20.6504  20.6500  20.6496  20.6492  20.6488  20.6484
 CONDUCTIVITY     26.1518  26.1740  25.9814  26.0018  26.0224  26.0430  26.0637  26.0844
 PRANDTL NUMBER    0.6873   0.6871   0.6912   0.6910   0.6909   0.6907   0.6905   0.6903

 MOLE FRACTIONS

 *e-              0.00016  0.00017  0.00013  0.00013  0.00013  0.00013  0.00014  0.00014
 *H               0.95877  0.95911  0.94987  0.95029  0.95071  0.95113  0.95154  0.95194
 *H+              0.00016  0.00016  0.00013  0.00013  0.00013  0.00013  0.00013  0.00014
 *H-              0.00001  0.00001  0.00001  0.00001  0.00001  0.00001  0.00001  0.00001
 *H2              0.04089  0.04054  0.04987  0.04944  0.04901  0.04859  0.04818  0.04777
 *H2+             0.00001  0.00001  0.00001  0.00001  0.00001  0.00001  0.00001  0.00001

  * THERMODYNAMIC PROPERTIES FITTED TO 20000.K

 NOTE. WEIGHT FRACTION OF FUEL IN TOTAL FUELS AND OF OXIDANT IN TOTAL OXIDANTS









               THERMODYNAMIC EQUILIBRIUM PROPERTIES AT ASSIGNED

                           TEMPERATURE AND PRESSURE

 CASE =                

             REACTANT                    WT FRACTION      ENERGY      TEMP
                                          (SEE NOTE)     KJ/KG-MOL      K  
             H2                           1.0000000         0.000      0.000

 O/F=    0.00000  %FUEL=100.000000  R,EQ.RATIO= 0.000000  PHI,EQ.RATIO= 0.000000

 THERMODYNAMIC PROPERTIES

 P, BAR            110.00   110.00   110.00   110.00   110.00   110.00   110.00   110.00
 T, K             7710.00  7720.00  7730.00  7740.00  7750.00  7760.00  7770.00  7780.00
 RHO, KG/CU M    1.8112-1 1.8082-1 1.8052-1 1.8022-1 1.7992-1 1.7962-1 1.7932-1 1.7902-1
 H, KJ/KG        348520.5 348899.0 349275.9 349651.3 350025.1 350397.4 350768.2 351137.5
 U, KJ/KG        287788.9 288065.1 288339.9 288613.3 288885.3 289156.0 289425.3 289693.3
 G, KJ/KG       -729703.2-731101.9-732501.1-733900.8-735301.0-736701.7-738102.8-739504.4
 S, KJ/(KG)(K)   139.8474 139.8965 139.9453 139.9938 140.0421 140.0901 140.1378 140.1853

 M, (1/n)           1.056    1.055    1.055    1.054    1.054    1.054    1.053    1.053
 (dLV/dLP)t      -1.04122 -1.04092 -1.04062 -1.04033 -1.04003 -1.03974 -1.03945 -1.03917
 (dLV/dLT)p        1.2994   1.2969   1.2943   1.2919   1.2894   1.2869   1.2845   1.2821
 Cp, KJ/(KG)(K)   37.9273  37.7695  37.6134  37.4589  37.3060  37.1547  37.0050  36.8568
 GAMMAs            1.4481   1.4492   1.4503   1.4514   1.4525   1.4536   1.4547   1.4558
 SON VEL,M/SEC     9378.0   9389.4   9400.9   9412.3   9423.7   9435.0   9446.4   9457.7

 TRANSPORT PROPERTIES (GASES ONLY)
   CONDUCTIVITY IN UNITS OF MILLIWATTS/(CM)(K)

 VISC,MILLIPOISE  0.87255  0.87304  0.87354  0.87404  0.87454  0.87505  0.87556  0.87607

  WITH EQUILIBRIUM REACTIONS

 Cp, KJ/(KG)(K)   37.9273  37.7695  37.6134  37.4589  37.3060  37.1547  37.0050  36.8568
 CONDUCTIVITY     52.4195  52.2130  52.0086  51.8065  51.6065  51.4088  51.2131  51.0197
 PRANDTL NUMBER    0.6313   0.6315   0.6318   0.6320   0.6322   0.6324   0.6327   0.6329

  WITH FROZEN REACTIONS

 Cp, KJ/(KG)(K)   20.6480  20.6477  20.6473  20.6469  20.6465  20.6461  20.6457  20.6453
 CONDUCTIVITY     26.1053  26.1262  26.1473  26.1684  26.1896  26.2109  26.2322  26.2537
 PRANDTL NUMBER    0.6901   0.6900   0.6898   0.6896   0.6894   0.6893   0.6891   0.6889

 MOLE FRACTIONS

 *e-              0.00014  0.00014  0.00014  0.00015  0.00015  0.00015  0.00015  0.00016
 *H               0.95235  0.95274  0.95314  0.95353  0.95391  0.95430  0.95467  0.95505
 *H+              0.00014  0.00014  0.00014  0.00015  0.00015  0.00015  0.00015  0.00015
 *H-              0.00001  0.00001  0.00001  0.00001  0.00001  0.00001  0.00001  0.00001
 *H2              0.04736  0.04696  0.04656  0.04617  0.04578  0.04539  0.04501  0.04463
 *H2+             0.00001  0.00001  0.00001  0.00001  0.00001  0.00001  0.00001  0.00001

  * THERMODYNAMIC PROPERTIES FITTED TO 20000.K

 NOTE. WEIGHT FRACTION OF FUEL IN TOTAL FUELS AND OF OXIDANT IN TOTAL OXIDANTS









               THERMODYNAMIC EQUILIBRIUM PROPERTIES AT ASSIGNED

                           TEMPERATURE AND PRESSURE

 CASE =                

             REACTANT                    WT FRACTION      ENERGY      TEMP
                                          (SEE NOTE)     KJ/KG-MOL      K  
             H2                           1.0000000         0.000      0.000

 O/F=    0.00000  %FUEL=100.000000  R,EQ.RATIO= 0.000000  PHI,EQ.RATIO= 0.000000

 THERMODYNAMIC PROPERTIES

 P, BAR            110.00   120.00   120.00   120.00   120.00   120.00   120.00   120.00
 T, K             7790.00  7650.00  7660.00  7670.00  7680.00  7690.00  7700.00  7710.00
 RHO, KG/CU M    1.7873-1 2.0039-1 2.0004-1 1.9970-1 1.9935-1 1.9901-1 1.9867-1 1.9833-1
 H, KJ/KG        351505.4 344515.0 344914.7 345312.6 345708.8 346103.3 346496.1 346887.3
 U, KJ/KG        289959.9 284632.9 284928.1 285221.6 285513.7 285804.1 286093.1 286380.5
 G, KJ/KG       -740906.5-716100.7-717487.4-718874.6-720262.3-721650.5-723039.3-724428.5
 S, KJ/(KG)(K)   140.2326 138.6426 138.6948 138.7467 138.7983 138.8497 138.9007 138.9515

 M, (1/n)           1.052    1.062    1.062    1.061    1.061    1.060    1.060    1.059
 (dLV/dLP)t      -1.03889 -1.04602 -1.04569 -1.04536 -1.04504 -1.04472 -1.04440 -1.04408
 (dLV/dLT)p        1.2797   1.3366   1.3338   1.3310   1.3282   1.3255   1.3228   1.3201
 Cp, KJ/(KG)(K)   36.7102  40.0565  39.8811  39.7074  39.5353  39.3650  39.1964  39.0294
 GAMMAs            1.4568   1.4349   1.4360   1.4371   1.4382   1.4394   1.4405   1.4416
 SON VEL,M/SEC     9469.0   9269.6   9281.3   9293.0   9304.6   9316.2   9327.8   9339.4

 TRANSPORT PROPERTIES (GASES ONLY)
   CONDUCTIVITY IN UNITS OF MILLIWATTS/(CM)(K)

 VISC,MILLIPOISE  0.87659  0.87530  0.87575  0.87619  0.87665  0.87710  0.87756  0.87802

  WITH EQUILIBRIUM REACTIONS

 Cp, KJ/(KG)(K)   36.7102  40.0565  39.8811  39.7074  39.5353  39.3650  39.1964  39.0294
 CONDUCTIVITY     50.8283  55.7104  55.4775  55.2470  55.0189  54.7931  54.5696  54.3484
 PRANDTL NUMBER    0.6331   0.6294   0.6295   0.6297   0.6299   0.6301   0.6303   0.6305

  WITH FROZEN REACTIONS

 Cp, KJ/(KG)(K)   20.6449  20.6513  20.6509  20.6504  20.6500  20.6496  20.6491  20.6487
 CONDUCTIVITY     26.2752  26.0890  26.1088  26.1287  26.1487  26.1687  26.1889  26.2091
 PRANDTL NUMBER    0.6888   0.6929   0.6927   0.6925   0.6923   0.6921   0.6919   0.6917

 MOLE FRACTIONS

 *e-              0.00016  0.00012  0.00012  0.00013  0.00013  0.00013  0.00013  0.00013
 *H               0.95542  0.94581  0.94626  0.94672  0.94716  0.94760  0.94804  0.94847
 *H+              0.00016  0.00012  0.00012  0.00012  0.00013  0.00013  0.00013  0.00013
 *H-              0.00001  0.00001  0.00001  0.00001  0.00001  0.00001  0.00001  0.00001
 *H2              0.04425  0.05393  0.05348  0.05302  0.05257  0.05212  0.05168  0.05125
 *H2+             0.00001  0.00001  0.00001  0.00001  0.00001  0.00001  0.00001  0.00001

  * THERMODYNAMIC PROPERTIES FITTED TO 20000.K

 NOTE. WEIGHT FRACTION OF FUEL IN TOTAL FUELS AND OF OXIDANT IN TOTAL OXIDANTS









               THERMODYNAMIC EQUILIBRIUM PROPERTIES AT ASSIGNED

                           TEMPERATURE AND PRESSURE

 CASE =                

             REACTANT                    WT FRACTION      ENERGY      TEMP
                                          (SEE NOTE)     KJ/KG-MOL      K  
             H2                           1.0000000         0.000      0.000

 O/F=    0.00000  %FUEL=100.000000  R,EQ.RATIO= 0.000000  PHI,EQ.RATIO= 0.000000

 THERMODYNAMIC PROPERTIES

 P, BAR            120.00   120.00   120.00   120.00   120.00   120.00   120.00   120.00
 T, K             7720.00  7730.00  7740.00  7750.00  7760.00  7770.00  7780.00  7790.00
 RHO, KG/CU M    1.9799-1 1.9765-1 1.9731-1 1.9698-1 1.9665-1 1.9632-1 1.9599-1 1.9566-1
 H, KJ/KG        347276.7 347664.6 348050.8 348435.3 348818.3 349199.7 349579.6 349957.9
 U, KJ/KG        286666.5 286951.0 287234.0 287515.5 287795.7 288074.4 288351.7 288627.6
 G, KJ/KG       -725818.3-727208.6-728599.3-729990.6-731382.4-732774.6-734167.4-735560.6
 S, KJ/(KG)(K)   139.0019 139.0522 139.1021 139.1517 139.2011 139.2502 139.2991 139.3477

 M, (1/n)           1.059    1.059    1.058    1.058    1.057    1.057    1.056    1.056
 (dLV/dLP)t      -1.04377 -1.04346 -1.04315 -1.04284 -1.04253 -1.04223 -1.04193 -1.04163
 (dLV/dLT)p        1.3174   1.3147   1.3121   1.3095   1.3070   1.3044   1.3019   1.2994
 Cp, KJ/(KG)(K)   38.8641  38.7004  38.5383  38.3779  38.2191  38.0618  37.9062  37.7521
 GAMMAs            1.4427   1.4437   1.4448   1.4459   1.4470   1.4481   1.4492   1.4503
 SON VEL,M/SEC     9350.9   9362.4   9373.9   9385.4   9396.8   9408.3   9419.7   9431.0

 TRANSPORT PROPERTIES (GASES ONLY)
   CONDUCTIVITY IN UNITS OF MILLIWATTS/(CM)(K)

 VISC,MILLIPOISE  0.87849  0.87896  0.87943  0.87991  0.88039  0.88088  0.88137  0.88186

  WITH EQUILIBRIUM REACTIONS

 Cp, KJ/(KG)(K)   38.8641  38.7004  38.5383  38.3779  38.2191  38.0618  37.9062  37.7521
 CONDUCTIVITY     54.1295  53.9129  53.6985  53.4864  53.2764  53.0687  52.8632  52.6598
 PRANDTL NUMBER    0.6307   0.6309   0.6312   0.6314   0.6316   0.6318   0.6320   0.6322

  WITH FROZEN REACTIONS

 Cp, KJ/(KG)(K)   20.6483  20.6478  20.6474  20.6470  20.6465  20.6461  20.6457  20.6453
 CONDUCTIVITY     26.2295  26.2499  26.2704  26.2910  26.3116  26.3324  26.3532  26.3742
 PRANDTL NUMBER    0.6916   0.6914   0.6912   0.6910   0.6908   0.6907   0.6905   0.6903

 MOLE FRACTIONS

 *e-              0.00014  0.00014  0.00014  0.00014  0.00014  0.00015  0.00015  0.00015
 *H               0.94890  0.94932  0.94974  0.95016  0.95057  0.95097  0.95138  0.95177
 *H+              0.00013  0.00014  0.00014  0.00014  0.00014  0.00015  0.00015  0.00015
 *H-              0.00001  0.00001  0.00001  0.00001  0.00001  0.00001  0.00001  0.00001
 *H2              0.05081  0.05039  0.04996  0.04954  0.04913  0.04872  0.04831  0.04791
 *H2+             0.00001  0.00001  0.00001  0.00001  0.00001  0.00001  0.00001  0.00001

  * THERMODYNAMIC PROPERTIES FITTED TO 20000.K

 NOTE. WEIGHT FRACTION OF FUEL IN TOTAL FUELS AND OF OXIDANT IN TOTAL OXIDANTS









               THERMODYNAMIC EQUILIBRIUM PROPERTIES AT ASSIGNED

                           TEMPERATURE AND PRESSURE

 CASE =                

             REACTANT                    WT FRACTION      ENERGY      TEMP
                                          (SEE NOTE)     KJ/KG-MOL      K  
             H2                           1.0000000         0.000      0.000

 O/F=    0.00000  %FUEL=100.000000  R,EQ.RATIO= 0.000000  PHI,EQ.RATIO= 0.000000

 THERMODYNAMIC PROPERTIES

 P, BAR            132.00   132.00   132.00   132.00   132.00   132.00   132.00   132.00
 T, K             7650.00  7660.00  7670.00  7680.00  7690.00  7700.00  7710.00  7720.00
 RHO, KG/CU M    2.2144-1 2.2104-1 2.2065-1 2.2026-1 2.1988-1 2.1949-1 2.1911-1 2.1873-1
 H, KJ/KG        342528.8 342941.5 343352.3 343761.4 344168.6 344574.1 344977.8 345379.7
 U, KJ/KG        282918.3 283225.0 283530.0 283833.5 284135.3 284435.5 284734.1 285031.1
 G, KJ/KG       -710406.1-711782.7-713159.9-714537.7-715915.9-717294.7-718674.0-720053.9
 S, KJ/(KG)(K)   137.6386 137.6925 137.7461 137.7994 137.8523 137.9050 137.9574 138.0095

 M, (1/n)           1.067    1.067    1.066    1.066    1.065    1.065    1.064    1.064
 (dLV/dLP)t      -1.04939 -1.04905 -1.04871 -1.04837 -1.04803 -1.04770 -1.04737 -1.04704
 (dLV/dLT)p        1.3612   1.3582   1.3553   1.3524   1.3495   1.3466   1.3438   1.3410
 Cp, KJ/(KG)(K)   41.3588  41.1753  40.9936  40.8135  40.6351  40.4584  40.2834  40.1100
 GAMMAs            1.4279   1.4290   1.4301   1.4312   1.4323   1.4334   1.4345   1.4356
 SON VEL,M/SEC     9226.0   9237.8   9249.5   9261.2   9272.9   9284.6   9296.2   9307.9

 TRANSPORT PROPERTIES (GASES ONLY)
   CONDUCTIVITY IN UNITS OF MILLIWATTS/(CM)(K)

 VISC,MILLIPOISE  0.88183  0.88225  0.88267  0.88309  0.88351  0.88394  0.88438  0.88482

  WITH EQUILIBRIUM REACTIONS

 Cp, KJ/(KG)(K)   41.3588  41.1753  40.9936  40.8135  40.6351  40.4584  40.2834  40.1100
 CONDUCTIVITY     58.0075  57.7611  57.5171  57.2755  57.0362  56.7993  56.5647  56.3324
 PRANDTL NUMBER    0.6287   0.6289   0.6291   0.6293   0.6295   0.6296   0.6298   0.6300

  WITH FROZEN REACTIONS

 Cp, KJ/(KG)(K)   20.6524  20.6519  20.6514  20.6509  20.6504  20.6499  20.6494  20.6490
 CONDUCTIVITY     26.2147  26.2338  26.2529  26.2722  26.2915  26.3110  26.3305  26.3501
 PRANDTL NUMBER    0.6947   0.6945   0.6943   0.6941   0.6939   0.6938   0.6936   0.6934

 MOLE FRACTIONS

 *e-              0.00012  0.00012  0.00012  0.00012  0.00012  0.00013  0.00013  0.00013
 *H               0.94102  0.94152  0.94200  0.94249  0.94296  0.94343  0.94390  0.94436
 *H+              0.00012  0.00012  0.00012  0.00012  0.00012  0.00012  0.00013  0.00013
 *H-              0.00001  0.00001  0.00001  0.00001  0.00001  0.00001  0.00001  0.00001
 *H2              0.05873  0.05823  0.05774  0.05726  0.05678  0.05630  0.05583  0.05536
 *H2+             0.00001  0.00001  0.00001  0.00001  0.00001  0.00001  0.00001  0.00001

  * THERMODYNAMIC PROPERTIES FITTED TO 20000.K

 NOTE. WEIGHT FRACTION OF FUEL IN TOTAL FUELS AND OF OXIDANT IN TOTAL OXIDANTS









               THERMODYNAMIC EQUILIBRIUM PROPERTIES AT ASSIGNED

                           TEMPERATURE AND PRESSURE

 CASE =                

             REACTANT                    WT FRACTION      ENERGY      TEMP
                                          (SEE NOTE)     KJ/KG-MOL      K  
             H2                           1.0000000         0.000      0.000

 O/F=    0.00000  %FUEL=100.000000  R,EQ.RATIO= 0.000000  PHI,EQ.RATIO= 0.000000

 THERMODYNAMIC PROPERTIES

 P, BAR            132.00   132.00   132.00   132.00   132.00   132.00   132.00   148.00
 T, K             7730.00  7740.00  7750.00  7760.00  7770.00  7780.00  7790.00  7650.00
 RHO, KG/CU M    2.1835-1 2.1797-1 2.1760-1 2.1722-1 2.1685-1 2.1648-1 2.1612-1 2.4975-1
 H, KJ/KG        345780.0 346178.5 346575.4 346970.5 347364.0 347755.9 348146.1 339968.5
 U, KJ/KG        285326.6 285620.6 285913.0 286204.0 286493.4 286781.4 287067.9 280708.2
 G, KJ/KG       -721434.2-722815.1-724196.5-725578.4-726960.8-728343.7-729727.1-703605.8
 S, KJ/(KG)(K)   138.0613 138.1129 138.1641 138.2151 138.2657 138.3161 138.3663 136.4149

 M, (1/n)           1.063    1.063    1.062    1.062    1.061    1.061    1.060    1.073
 (dLV/dLP)t      -1.04671 -1.04639 -1.04606 -1.04574 -1.04543 -1.04511 -1.04480 -1.05364
 (dLV/dLT)p        1.3382   1.3354   1.3327   1.3300   1.3273   1.3246   1.3220   1.3921
 Cp, KJ/(KG)(K)   39.9383  39.7682  39.5997  39.4328  39.2676  39.1039  38.9418  42.9766
 GAMMAs            1.4367   1.4378   1.4388   1.4399   1.4410   1.4421   1.4432   1.4198
 SON VEL,M/SEC     9319.5   9331.0   9342.6   9354.1   9365.6   9377.1   9388.6   9172.6

 TRANSPORT PROPERTIES (GASES ONLY)
   CONDUCTIVITY IN UNITS OF MILLIWATTS/(CM)(K)

 VISC,MILLIPOISE  0.88526  0.88570  0.88615  0.88660  0.88706  0.88752  0.88798  0.89018

  WITH EQUILIBRIUM REACTIONS

 Cp, KJ/(KG)(K)   39.9383  39.7682  39.5997  39.4328  39.2676  39.1039  38.9418  42.9766
 CONDUCTIVITY     56.1024  55.8747  55.6493  55.4261  55.2051  54.9864  54.7699  60.9002
 PRANDTL NUMBER    0.6302   0.6304   0.6306   0.6308   0.6310   0.6312   0.6314   0.6282

  WITH FROZEN REACTIONS

 Cp, KJ/(KG)(K)   20.6485  20.6480  20.6475  20.6471  20.6466  20.6461  20.6457  20.6537
 CONDUCTIVITY     26.3698  26.3896  26.4095  26.4295  26.4496  26.4698  26.4900  26.3766
 PRANDTL NUMBER    0.6932   0.6930   0.6928   0.6926   0.6924   0.6923   0.6921   0.6970

 MOLE FRACTIONS

 *e-              0.00013  0.00013  0.00014  0.00014  0.00014  0.00014  0.00014  0.00011
 *H               0.94482  0.94528  0.94572  0.94617  0.94661  0.94704  0.94747  0.93479
 *H+              0.00013  0.00013  0.00013  0.00014  0.00014  0.00014  0.00014  0.00011
 *H-              0.00001  0.00001  0.00001  0.00001  0.00001  0.00001  0.00001  0.00001
 *H2              0.05490  0.05444  0.05399  0.05354  0.05310  0.05266  0.05222  0.06498
 *H2+             0.00001  0.00001  0.00001  0.00001  0.00001  0.00001  0.00001  0.00001

  * THERMODYNAMIC PROPERTIES FITTED TO 20000.K

 NOTE. WEIGHT FRACTION OF FUEL IN TOTAL FUELS AND OF OXIDANT IN TOTAL OXIDANTS









               THERMODYNAMIC EQUILIBRIUM PROPERTIES AT ASSIGNED

                           TEMPERATURE AND PRESSURE

 CASE =                

             REACTANT                    WT FRACTION      ENERGY      TEMP
                                          (SEE NOTE)     KJ/KG-MOL      K  
             H2                           1.0000000         0.000      0.000

 O/F=    0.00000  %FUEL=100.000000  R,EQ.RATIO= 0.000000  PHI,EQ.RATIO= 0.000000

 THERMODYNAMIC PROPERTIES

 P, BAR            148.00   148.00   148.00   148.00   148.00   148.00   148.00   148.00
 T, K             7660.00  7670.00  7680.00  7690.00  7700.00  7710.00  7720.00  7730.00
 RHO, KG/CU M    2.4929-1 2.4884-1 2.4839-1 2.4795-1 2.4750-1 2.4706-1 2.4662-1 2.4619-1
 H, KJ/KG        340397.3 340824.2 341249.2 341672.3 342093.5 342512.9 342930.4 343346.2
 U, KJ/KG        281029.2 281348.6 281666.2 281982.1 282296.3 282608.9 282919.8 283229.1
 G, KJ/KG       -704970.2-706335.2-707700.8-709066.9-710433.5-711800.7-713168.4-714536.7
 S, KJ/(KG)(K)   136.4710 136.5266 136.5820 136.6371 136.6918 136.7463 136.8004 136.8542

 M, (1/n)           1.073    1.072    1.072    1.071    1.071    1.070    1.070    1.069
 (dLV/dLP)t      -1.05328 -1.05292 -1.05257 -1.05221 -1.05186 -1.05151 -1.05117 -1.05082
 (dLV/dLT)p        1.3890   1.3859   1.3828   1.3798   1.3767   1.3737   1.3707   1.3678
 Cp, KJ/(KG)(K)   42.7841  42.5933  42.4042  42.2167  42.0309  41.8467  41.6642  41.4833
 GAMMAs            1.4209   1.4220   1.4230   1.4241   1.4252   1.4263   1.4273   1.4284
 SON VEL,M/SEC     9184.5   9196.3   9208.1   9219.8   9231.6   9243.3   9255.0   9266.7

 TRANSPORT PROPERTIES (GASES ONLY)
   CONDUCTIVITY IN UNITS OF MILLIWATTS/(CM)(K)

 VISC,MILLIPOISE  0.89055  0.89094  0.89132  0.89171  0.89211  0.89251  0.89291  0.89332

  WITH EQUILIBRIUM REACTIONS

 Cp, KJ/(KG)(K)   42.7841  42.5933  42.4042  42.2167  42.0309  41.8467  41.6642  41.4833
 CONDUCTIVITY     60.6381  60.3783  60.1210  59.8660  59.6133  59.3630  59.1151  58.8694
 PRANDTL NUMBER    0.6283   0.6285   0.6287   0.6288   0.6290   0.6292   0.6293   0.6295

  WITH FROZEN REACTIONS

 Cp, KJ/(KG)(K)   20.6532  20.6526  20.6521  20.6515  20.6510  20.6505  20.6499  20.6494
 CONDUCTIVITY     26.3948  26.4131  26.4314  26.4499  26.4685  26.4871  26.5059  26.5247
 PRANDTL NUMBER    0.6968   0.6966   0.6964   0.6962   0.6960   0.6958   0.6956   0.6954

 MOLE FRACTIONS

 *e-              0.00011  0.00011  0.00011  0.00012  0.00012  0.00012  0.00012  0.00012
 *H               0.93533  0.93586  0.93639  0.93691  0.93743  0.93794  0.93844  0.93895
 *H+              0.00011  0.00011  0.00011  0.00012  0.00012  0.00012  0.00012  0.00012
 *H-              0.00001  0.00001  0.00001  0.00001  0.00001  0.00001  0.00001  0.00001
 *H2              0.06444  0.06390  0.06337  0.06284  0.06232  0.06181  0.06130  0.06079
 *H2+             0.00001  0.00001  0.00001  0.00001  0.00001  0.00001  0.00001  0.00001

  * THERMODYNAMIC PROPERTIES FITTED TO 20000.K

 NOTE. WEIGHT FRACTION OF FUEL IN TOTAL FUELS AND OF OXIDANT IN TOTAL OXIDANTS









               THERMODYNAMIC EQUILIBRIUM PROPERTIES AT ASSIGNED

                           TEMPERATURE AND PRESSURE

 CASE =                

             REACTANT                    WT FRACTION      ENERGY      TEMP
                                          (SEE NOTE)     KJ/KG-MOL      K  
             H2                           1.0000000         0.000      0.000

 O/F=    0.00000  %FUEL=100.000000  R,EQ.RATIO= 0.000000  PHI,EQ.RATIO= 0.000000

 THERMODYNAMIC PROPERTIES

 P, BAR            148.00   148.00   148.00   148.00   148.00   148.00   165.00   165.00
 T, K             7740.00  7750.00  7760.00  7770.00  7780.00  7790.00  7650.00  7660.00
 RHO, KG/CU M    2.4575-1 2.4532-1 2.4489-1 2.4446-1 2.4404-1 2.4361-1 2.8013-1 2.7961-1
 H, KJ/KG        343760.1 344172.3 344582.6 344991.3 345398.2 345803.3 337351.6 337796.2
 U, KJ/KG        283536.7 283842.8 284147.2 284450.1 284751.4 285051.1 278449.3 278784.5
 G, KJ/KG       -715905.5-717274.9-718644.7-720015.1-721386.1-722757.5-697181.5-698534.1
 S, KJ/(KG)(K)   136.9077 136.9609 137.0138 137.0665 137.1188 137.1708 135.2331 135.2912

 M, (1/n)           1.069    1.068    1.068    1.067    1.067    1.066    1.080    1.079
 (dLV/dLP)t      -1.05048 -1.05014 -1.04980 -1.04947 -1.04913 -1.04880 -1.05786 -1.05748
 (dLV/dLT)p        1.3649   1.3620   1.3591   1.3562   1.3534   1.3506   1.4228   1.4195
 Cp, KJ/(KG)(K)   41.3041  41.1264  40.9504  40.7759  40.6031  40.4318  44.5593  44.3591
 GAMMAs            1.4295   1.4305   1.4316   1.4327   1.4337   1.4348   1.4123   1.4134
 SON VEL,M/SEC     9278.4   9290.0   9301.6   9313.2   9324.8   9336.4   9120.8   9132.7

 TRANSPORT PROPERTIES (GASES ONLY)
   CONDUCTIVITY IN UNITS OF MILLIWATTS/(CM)(K)

 VISC,MILLIPOISE  0.89373  0.89414  0.89456  0.89498  0.89540  0.89583  0.89861  0.89895

  WITH EQUILIBRIUM REACTIONS

 Cp, KJ/(KG)(K)   41.3041  41.1264  40.9504  40.7759  40.6031  40.4318  44.5593  44.3591
 CONDUCTIVITY     58.6260  58.3850  58.1462  57.9096  57.6753  57.4432  63.7765  63.5002
 PRANDTL NUMBER    0.6297   0.6298   0.6300   0.6302   0.6304   0.6305   0.6278   0.6280

  WITH FROZEN REACTIONS

 Cp, KJ/(KG)(K)   20.6488  20.6483  20.6478  20.6472  20.6467  20.6462  20.6551  20.6545
 CONDUCTIVITY     26.5436  26.5627  26.5818  26.6010  26.6203  26.6397  26.5420  26.5593
 PRANDTL NUMBER    0.6952   0.6951   0.6949   0.6947   0.6945   0.6943   0.6993   0.6991

 MOLE FRACTIONS

 *e-              0.00013  0.00013  0.00013  0.00013  0.00013  0.00014  0.00010  0.00010
 *H               0.93944  0.93993  0.94042  0.94090  0.94138  0.94185  0.92833  0.92892
 *H+              0.00012  0.00013  0.00013  0.00013  0.00013  0.00013  0.00010  0.00010
 *H-              0.00001  0.00001  0.00001  0.00001  0.00001  0.00001  0.00001  0.00001
 *H2              0.06029  0.05980  0.05931  0.05882  0.05834  0.05786  0.07144  0.07086
 *H2+             0.00001  0.00001  0.00001  0.00001  0.00001  0.00001  0.00001  0.00001

  * THERMODYNAMIC PROPERTIES FITTED TO 20000.K

 NOTE. WEIGHT FRACTION OF FUEL IN TOTAL FUELS AND OF OXIDANT IN TOTAL OXIDANTS









               THERMODYNAMIC EQUILIBRIUM PROPERTIES AT ASSIGNED

                           TEMPERATURE AND PRESSURE

 CASE =                

             REACTANT                    WT FRACTION      ENERGY      TEMP
                                          (SEE NOTE)     KJ/KG-MOL      K  
             H2                           1.0000000         0.000      0.000

 O/F=    0.00000  %FUEL=100.000000  R,EQ.RATIO= 0.000000  PHI,EQ.RATIO= 0.000000

 THERMODYNAMIC PROPERTIES

 P, BAR            165.00   165.00   165.00   165.00   165.00   165.00   165.00   165.00
 T, K             7670.00  7680.00  7690.00  7700.00  7710.00  7720.00  7730.00  7740.00
 RHO, KG/CU M    2.7909-1 2.7857-1 2.7806-1 2.7756-1 2.7705-1 2.7655-1 2.7605-1 2.7555-1
 H, KJ/KG        338238.8 338679.4 339118.1 339554.8 339989.6 340422.4 340853.4 341282.5
 U, KJ/KG        279117.8 279449.4 279779.1 280107.1 280433.4 280758.0 281080.8 281401.9
 G, KJ/KG       -699887.3-701241.1-702595.4-703950.4-705305.8-706661.9-708018.5-709375.7
 S, KJ/(KG)(K)   135.3489 135.4063 135.4634 135.5201 135.5766 135.6327 135.6885 135.7439

 M, (1/n)           1.079    1.078    1.078    1.077    1.076    1.076    1.075    1.075
 (dLV/dLP)t      -1.05711 -1.05674 -1.05637 -1.05600 -1.05564 -1.05528 -1.05492 -1.05456
 (dLV/dLT)p        1.4163   1.4131   1.4099   1.4067   1.4035   1.4004   1.3973   1.3942
 Cp, KJ/(KG)(K)   44.1605  43.9636  43.7683  43.5746  43.3825  43.1920  43.0031  42.8158
 GAMMAs            1.4144   1.4155   1.4166   1.4176   1.4187   1.4197   1.4208   1.4218
 SON VEL,M/SEC     9144.6   9156.4   9168.3   9180.1   9191.9   9203.7   9215.4   9227.2

 TRANSPORT PROPERTIES (GASES ONLY)
   CONDUCTIVITY IN UNITS OF MILLIWATTS/(CM)(K)

 VISC,MILLIPOISE  0.89930  0.89966  0.90001  0.90037  0.90074  0.90111  0.90148  0.90186

  WITH EQUILIBRIUM REACTIONS

 Cp, KJ/(KG)(K)   44.1605  43.9636  43.7683  43.5746  43.3825  43.1920  43.0031  42.8158
 CONDUCTIVITY     63.2263  62.9548  62.6856  62.4187  62.1542  61.8919  61.6320  61.3744
 PRANDTL NUMBER    0.6281   0.6283   0.6284   0.6286   0.6287   0.6288   0.6290   0.6292

  WITH FROZEN REACTIONS

 Cp, KJ/(KG)(K)   20.6539  20.6533  20.6527  20.6521  20.6515  20.6509  20.6503  20.6497
 CONDUCTIVITY     26.5767  26.5942  26.6118  26.6295  26.6473  26.6652  26.6832  26.7013
 PRANDTL NUMBER    0.6989   0.6987   0.6985   0.6983   0.6981   0.6979   0.6977   0.6975

 MOLE FRACTIONS

 *e-              0.00011  0.00011  0.00011  0.00011  0.00011  0.00011  0.00012  0.00012
 *H               0.92950  0.93007  0.93064  0.93120  0.93176  0.93231  0.93285  0.93339
 *H+              0.00011  0.00011  0.00011  0.00011  0.00011  0.00011  0.00012  0.00012
 *H-              0.00001  0.00001  0.00001  0.00001  0.00001  0.00001  0.00001  0.00001
 *H2              0.07028  0.06970  0.06913  0.06856  0.06800  0.06745  0.06690  0.06635
 *H2+             0.00001  0.00001  0.00001  0.00001  0.00001  0.00001  0.00001  0.00001

  * THERMODYNAMIC PROPERTIES FITTED TO 20000.K

 NOTE. WEIGHT FRACTION OF FUEL IN TOTAL FUELS AND OF OXIDANT IN TOTAL OXIDANTS









               THERMODYNAMIC EQUILIBRIUM PROPERTIES AT ASSIGNED

                           TEMPERATURE AND PRESSURE

 CASE =                

             REACTANT                    WT FRACTION      ENERGY      TEMP
                                          (SEE NOTE)     KJ/KG-MOL      K  
             H2                           1.0000000         0.000      0.000

 O/F=    0.00000  %FUEL=100.000000  R,EQ.RATIO= 0.000000  PHI,EQ.RATIO= 0.000000

 THERMODYNAMIC PROPERTIES

 P, BAR            165.00   165.00   165.00   165.00   165.00   180.00   180.00   180.00
 T, K             7750.00  7760.00  7770.00  7780.00  7790.00  7650.00  7660.00  7670.00
 RHO, KG/CU M    2.7505-1 2.7456-1 2.7407-1 2.7358-1 2.7310-1 3.0718-1 3.0660-1 3.0602-1
 H, KJ/KG        341709.7 342135.1 342558.7 342980.4 343400.3 335125.6 335583.1 336038.5
 U, KJ/KG        281721.4 282039.2 282355.3 282669.8 282982.7 276528.0 276874.6 277219.4
 G, KJ/KG       -710733.4-712091.6-713450.4-714809.8-716169.7-692069.5-693412.5-694756.1
 S, KJ/(KG)(K)   135.7991 135.8540 135.9085 135.9627 136.0167 134.2739 134.3336 134.3930

 M, (1/n)           1.074    1.074    1.073    1.073    1.072    1.085    1.085    1.084
 (dLV/dLP)t      -1.05421 -1.05385 -1.05350 -1.05315 -1.05281 -1.06135 -1.06096 -1.06058
 (dLV/dLT)p        1.3912   1.3881   1.3851   1.3822   1.3792   1.4482   1.4448   1.4415
 Cp, KJ/(KG)(K)   42.6301  42.4460  42.2634  42.0824  41.9030  45.8495  45.6438  45.4398
 GAMMAs            1.4229   1.4239   1.4250   1.4260   1.4271   1.4065   1.4076   1.4086
 SON VEL,M/SEC     9238.9   9250.6   9262.2   9273.9   9285.5   9078.6   9090.5   9102.4

 TRANSPORT PROPERTIES (GASES ONLY)
   CONDUCTIVITY IN UNITS OF MILLIWATTS/(CM)(K)

 VISC,MILLIPOISE  0.90224  0.90263  0.90301  0.90341  0.90380  0.90570  0.90602  0.90635

  WITH EQUILIBRIUM REACTIONS

 Cp, KJ/(KG)(K)   42.6301  42.4460  42.2634  42.0824  41.9030  45.8495  45.6438  45.4398
 CONDUCTIVITY     61.1190  60.8659  60.6150  60.3664  60.1200  66.1589  65.8721  65.5877
 PRANDTL NUMBER    0.6293   0.6295   0.6296   0.6298   0.6299   0.6277   0.6278   0.6279

  WITH FROZEN REACTIONS

 Cp, KJ/(KG)(K)   20.6491  20.6485  20.6479  20.6474  20.6468  20.6563  20.6557  20.6550
 CONDUCTIVITY     26.7195  26.7378  26.7562  26.7747  26.7932  26.6825  26.6992  26.7159
 PRANDTL NUMBER    0.6973   0.6971   0.6969   0.6967   0.6965   0.7012   0.7009   0.7007

 MOLE FRACTIONS

 *e-              0.00012  0.00012  0.00012  0.00013  0.00013  0.00010  0.00010  0.00010
 *H               0.93393  0.93446  0.93498  0.93550  0.93602  0.92278  0.92340  0.92402
 *H+              0.00012  0.00012  0.00012  0.00012  0.00013  0.00010  0.00010  0.00010
 *H-              0.00001  0.00001  0.00001  0.00001  0.00001  0.00001  0.00001  0.00001
 *H2              0.06582  0.06528  0.06475  0.06423  0.06371  0.07701  0.07638  0.07576
 *H2+             0.00001  0.00001  0.00001  0.00001  0.00001  0.00001  0.00001  0.00001

  * THERMODYNAMIC PROPERTIES FITTED TO 20000.K

 NOTE. WEIGHT FRACTION OF FUEL IN TOTAL FUELS AND OF OXIDANT IN TOTAL OXIDANTS









               THERMODYNAMIC EQUILIBRIUM PROPERTIES AT ASSIGNED

                           TEMPERATURE AND PRESSURE

 CASE =                

             REACTANT                    WT FRACTION      ENERGY      TEMP
                                          (SEE NOTE)     KJ/KG-MOL      K  
             H2                           1.0000000         0.000      0.000

 O/F=    0.00000  %FUEL=100.000000  R,EQ.RATIO= 0.000000  PHI,EQ.RATIO= 0.000000

 THERMODYNAMIC PROPERTIES

 P, BAR            180.00   180.00   180.00   180.00   180.00   180.00   180.00   180.00
 T, K             7680.00  7690.00  7700.00  7710.00  7720.00  7730.00  7740.00  7750.00
 RHO, KG/CU M    3.0545-1 3.0488-1 3.0431-1 3.0375-1 3.0319-1 3.0263-1 3.0207-1 3.0152-1
 H, KJ/KG        336491.9 336943.3 337392.6 337840.0 338285.4 338728.9 339170.4 339610.0
 U, KJ/KG        277562.3 277903.5 278242.8 278580.3 278916.0 279250.0 279582.2 279912.6
 G, KJ/KG       -696100.4-697445.2-698790.6-700136.6-701483.1-702830.3-704178.0-705526.2
 S, KJ/(KG)(K)   134.4521 134.5108 134.5692 134.6273 134.6850 134.7424 134.7995 134.8563

 M, (1/n)           1.084    1.083    1.082    1.082    1.081    1.081    1.080    1.079
 (dLV/dLP)t      -1.06020 -1.05982 -1.05944 -1.05906 -1.05869 -1.05832 -1.05795 -1.05758
 (dLV/dLT)p        1.4381   1.4348   1.4315   1.4283   1.4250   1.4218   1.4186   1.4155
 Cp, KJ/(KG)(K)   45.2373  45.0364  44.8370  44.6392  44.4430  44.2484  44.0553  43.8637
 GAMMAs            1.4097   1.4107   1.4118   1.4128   1.4138   1.4149   1.4159   1.4169
 SON VEL,M/SEC     9114.3   9126.2   9138.1   9149.9   9161.8   9173.6   9185.4   9197.2

 TRANSPORT PROPERTIES (GASES ONLY)
   CONDUCTIVITY IN UNITS OF MILLIWATTS/(CM)(K)

 VISC,MILLIPOISE  0.90668  0.90701  0.90734  0.90768  0.90803  0.90837  0.90873  0.90908

  WITH EQUILIBRIUM REACTIONS

 Cp, KJ/(KG)(K)   45.2373  45.0364  44.8370  44.6392  44.4430  44.2484  44.0553  43.8637
 CONDUCTIVITY     65.3055  65.0257  64.7481  64.4728  64.1998  63.9291  63.6606  63.3944
 PRANDTL NUMBER    0.6281   0.6282   0.6283   0.6285   0.6286   0.6287   0.6289   0.6290

  WITH FROZEN REACTIONS

 Cp, KJ/(KG)(K)   20.6544  20.6537  20.6531  20.6524  20.6518  20.6511  20.6505  20.6498
 CONDUCTIVITY     26.7327  26.7496  26.7666  26.7837  26.8009  26.8182  26.8357  26.8532
 PRANDTL NUMBER    0.7005   0.7003   0.7001   0.6999   0.6997   0.6995   0.6993   0.6991

 MOLE FRACTIONS

 *e-              0.00010  0.00010  0.00011  0.00011  0.00011  0.00011  0.00011  0.00011
 *H               0.92463  0.92524  0.92584  0.92643  0.92702  0.92760  0.92818  0.92875
 *H+              0.00010  0.00010  0.00011  0.00011  0.00011  0.00011  0.00011  0.00011
 *H-              0.00001  0.00001  0.00001  0.00001  0.00001  0.00001  0.00001  0.00001
 *H2              0.07515  0.07454  0.07394  0.07334  0.07275  0.07216  0.07158  0.07100
 *H2+             0.00001  0.00001  0.00001  0.00001  0.00001  0.00001  0.00001  0.00001

  * THERMODYNAMIC PROPERTIES FITTED TO 20000.K

 NOTE. WEIGHT FRACTION OF FUEL IN TOTAL FUELS AND OF OXIDANT IN TOTAL OXIDANTS









               THERMODYNAMIC EQUILIBRIUM PROPERTIES AT ASSIGNED

                           TEMPERATURE AND PRESSURE

 CASE =                

             REACTANT                    WT FRACTION      ENERGY      TEMP
                                          (SEE NOTE)     KJ/KG-MOL      K  
             H2                           1.0000000         0.000      0.000

 O/F=    0.00000  %FUEL=100.000000  R,EQ.RATIO= 0.000000  PHI,EQ.RATIO= 0.000000

 THERMODYNAMIC PROPERTIES

 P, BAR            180.00   180.00   180.00   180.00   200.00   200.00   200.00   200.00
 T, K             7760.00  7770.00  7780.00  7790.00  7650.00  7660.00  7670.00  7680.00
 RHO, KG/CU M    3.0097-1 3.0043-1 2.9988-1 2.9934-1 3.4360-1 3.4294-1 3.4228-1 3.4162-1
 H, KJ/KG        340047.7 340483.5 340917.4 341349.4 332270.9 332744.2 333215.3 333684.3
 U, KJ/KG        280241.4 280568.4 280893.8 281217.4 274064.1 274424.8 274783.6 275140.6
 G, KJ/KG       -706875.1-708224.5-709574.5-710925.0-685916.0-687247.2-688579.1-689911.6
 S, KJ/(KG)(K)   134.9127 134.9688 135.0247 135.0802 133.0963 133.1581 133.2196 133.2807

 M, (1/n)           1.079    1.078    1.078    1.077    1.093    1.092    1.091    1.091
 (dLV/dLP)t      -1.05722 -1.05686 -1.05650 -1.05614 -1.06568 -1.06529 -1.06489 -1.06450
 (dLV/dLT)p        1.4123   1.4092   1.4061   1.4030   1.4798   1.4763   1.4728   1.4694
 Cp, KJ/(KG)(K)   43.6737  43.4852  43.2982  43.1128  47.4291  47.2179  47.0082  46.8000
 GAMMAs            1.4180   1.4190   1.4200   1.4211   1.3998   1.4008   1.4018   1.4028
 SON VEL,M/SEC     9208.9   9220.6   9232.3   9244.0   9026.5   9038.5   9050.5   9062.5

 TRANSPORT PROPERTIES (GASES ONLY)
   CONDUCTIVITY IN UNITS OF MILLIWATTS/(CM)(K)

 VISC,MILLIPOISE  0.90944  0.90980  0.91017  0.91054  0.91470  0.91499  0.91529  0.91559

  WITH EQUILIBRIUM REACTIONS

 Cp, KJ/(KG)(K)   43.6737  43.4852  43.2982  43.1128  47.4291  47.2179  47.0082  46.8000
 CONDUCTIVITY     63.1304  62.8686  62.6091  62.3517  69.1274  68.8291  68.5330  68.2391
 PRANDTL NUMBER    0.6292   0.6293   0.6294   0.6296   0.6276   0.6277   0.6278   0.6279

  WITH FROZEN REACTIONS

 Cp, KJ/(KG)(K)   20.6492  20.6485  20.6479  20.6473  20.6579  20.6572  20.6565  20.6557
 CONDUCTIVITY     26.8708  26.8885  26.9063  26.9242  26.8626  26.8783  26.8942  26.9102
 PRANDTL NUMBER    0.6989   0.6987   0.6985   0.6983   0.7034   0.7032   0.7030   0.7028

 MOLE FRACTIONS

 *e-              0.00012  0.00012  0.00012  0.00012  0.00009  0.00009  0.00010  0.00010
 *H               0.92931  0.92988  0.93043  0.93098  0.91556  0.91624  0.91690  0.91756
 *H+              0.00012  0.00012  0.00012  0.00012  0.00009  0.00009  0.00010  0.00010
 *H-              0.00001  0.00001  0.00001  0.00001  0.00001  0.00001  0.00001  0.00001
 *H2              0.07043  0.06987  0.06931  0.06876  0.08423  0.08356  0.08289  0.08223
 *H2+             0.00001  0.00001  0.00001  0.00001  0.00001  0.00001  0.00001  0.00001

  * THERMODYNAMIC PROPERTIES FITTED TO 20000.K

 NOTE. WEIGHT FRACTION OF FUEL IN TOTAL FUELS AND OF OXIDANT IN TOTAL OXIDANTS









               THERMODYNAMIC EQUILIBRIUM PROPERTIES AT ASSIGNED

                           TEMPERATURE AND PRESSURE

 CASE =                

             REACTANT                    WT FRACTION      ENERGY      TEMP
                                          (SEE NOTE)     KJ/KG-MOL      K  
             H2                           1.0000000         0.000      0.000

 O/F=    0.00000  %FUEL=100.000000  R,EQ.RATIO= 0.000000  PHI,EQ.RATIO= 0.000000

 THERMODYNAMIC PROPERTIES

 P, BAR            200.00   200.00   200.00   200.00   200.00   200.00   200.00   200.00
 T, K             7690.00  7700.00  7710.00  7720.00  7730.00  7740.00  7750.00  7760.00
 RHO, KG/CU M    3.4097-1 3.4032-1 3.3968-1 3.3904-1 3.3840-1 3.3777-1 3.3714-1 3.3651-1
 H, KJ/KG        334151.3 334616.2 335079.1 335539.9 335998.7 336455.5 336910.4 337363.2
 U, KJ/KG        275495.6 275848.8 276200.2 276549.6 276897.3 277243.2 277587.2 277929.5
 G, KJ/KG       -691244.7-692578.4-693912.8-695247.7-696583.2-697919.3-699256.0-700593.3
 S, KJ/(KG)(K)   133.3415 133.4019 133.4620 133.5217 133.5811 133.6402 133.6989 133.7573

 M, (1/n)           1.090    1.089    1.089    1.088    1.087    1.087    1.086    1.086
 (dLV/dLP)t      -1.06411 -1.06372 -1.06334 -1.06295 -1.06257 -1.06219 -1.06181 -1.06143
 (dLV/dLT)p        1.4659   1.4625   1.4591   1.4558   1.4524   1.4491   1.4458   1.4426
 Cp, KJ/(KG)(K)   46.5933  46.3881  46.1844  45.9821  45.7814  45.5821  45.3843  45.1880
 GAMMAs            1.4039   1.4049   1.4059   1.4069   1.4079   1.4089   1.4100   1.4110
 SON VEL,M/SEC     9074.4   9086.3   9098.2   9110.1   9122.0   9133.8   9145.7   9157.5

 TRANSPORT PROPERTIES (GASES ONLY)
   CONDUCTIVITY IN UNITS OF MILLIWATTS/(CM)(K)

 VISC,MILLIPOISE  0.91589  0.91619  0.91651  0.91682  0.91714  0.91746  0.91778  0.91811

  WITH EQUILIBRIUM REACTIONS

 Cp, KJ/(KG)(K)   46.5933  46.3881  46.1844  45.9821  45.7814  45.5821  45.3843  45.1880
 CONDUCTIVITY     67.9475  67.6580  67.3708  67.0857  66.8029  66.5223  66.2438  65.9676
 PRANDTL NUMBER    0.6280   0.6282   0.6283   0.6284   0.6285   0.6287   0.6288   0.6289

  WITH FROZEN REACTIONS

 Cp, KJ/(KG)(K)   20.6550  20.6543  20.6536  20.6529  20.6522  20.6514  20.6507  20.6500
 CONDUCTIVITY     26.9263  26.9424  26.9587  26.9751  26.9916  27.0082  27.0248  27.0416
 PRANDTL NUMBER    0.7026   0.7024   0.7022   0.7019   0.7017   0.7015   0.7013   0.7011

 MOLE FRACTIONS

 *e-              0.00010  0.00010  0.00010  0.00010  0.00011  0.00011  0.00011  0.00011
 *H               0.91822  0.91886  0.91951  0.92014  0.92077  0.92139  0.92201  0.92262
 *H+              0.00010  0.00010  0.00010  0.00010  0.00010  0.00011  0.00011  0.00011
 *H-              0.00001  0.00001  0.00001  0.00001  0.00001  0.00001  0.00001  0.00001
 *H2              0.08157  0.08092  0.08027  0.07963  0.07900  0.07837  0.07775  0.07714
 *H2+             0.00001  0.00001  0.00001  0.00001  0.00001  0.00001  0.00001  0.00001

  * THERMODYNAMIC PROPERTIES FITTED TO 20000.K

 NOTE. WEIGHT FRACTION OF FUEL IN TOTAL FUELS AND OF OXIDANT IN TOTAL OXIDANTS









               THERMODYNAMIC EQUILIBRIUM PROPERTIES AT ASSIGNED

                           TEMPERATURE AND PRESSURE

 CASE =                

             REACTANT                    WT FRACTION      ENERGY      TEMP
                                          (SEE NOTE)     KJ/KG-MOL      K  
             H2                           1.0000000         0.000      0.000

 O/F=    0.00000  %FUEL=100.000000  R,EQ.RATIO= 0.000000  PHI,EQ.RATIO= 0.000000

 THERMODYNAMIC PROPERTIES

 P, BAR            200.00   200.00   200.00   225.00   225.00   225.00   225.00   225.00
 T, K             7770.00  7780.00  7790.00  7650.00  7660.00  7670.00  7680.00  7690.00
 RHO, KG/CU M    3.3589-1 3.3527-1 3.3465-1 3.8967-1 3.8890-1 3.8813-1 3.8737-1 3.8661-1
 H, KJ/KG        337814.1 338263.1 338710.1 328871.6 329362.6 329851.3 330338.0 330822.5
 U, KJ/KG        278270.0 278608.8 278945.8 271130.2 271506.8 271881.4 272254.1 272624.9
 G, KJ/KG       -701931.1-703269.6-704608.6-679087.3-680405.2-681723.8-683042.9-684362.8
 S, KJ/(KG)(K)   133.8153 133.8731 133.9305 131.7593 131.8235 131.8872 131.9506 132.0137

 M, (1/n)           1.085    1.084    1.084    1.102    1.101    1.100    1.099    1.099
 (dLV/dLP)t      -1.06106 -1.06069 -1.06031 -1.07065 -1.07025 -1.06984 -1.06944 -1.06904
 (dLV/dLT)p        1.4393   1.4361   1.4329   1.5160   1.5124   1.5088   1.5052   1.5017
 Cp, KJ/(KG)(K)   44.9931  44.7998  44.6079  49.2013  48.9855  48.7710  48.5579  48.3462
 GAMMAs            1.4120   1.4130   1.4140   1.3926   1.3936   1.3946   1.3955   1.3965
 SON VEL,M/SEC     9169.3   9181.1   9192.8   8967.1   8979.2   8991.2   9003.3   9015.3

 TRANSPORT PROPERTIES (GASES ONLY)
   CONDUCTIVITY IN UNITS OF MILLIWATTS/(CM)(K)

 VISC,MILLIPOISE  0.91844  0.91878  0.91912  0.92526  0.92552  0.92579  0.92606  0.92633

  WITH EQUILIBRIUM REACTIONS

 Cp, KJ/(KG)(K)   44.9931  44.7998  44.6079  49.2013  48.9855  48.7710  48.5579  48.3462
 CONDUCTIVITY     65.6935  65.4216  65.1518  72.5347  72.2253  71.9180  71.6128  71.3097
 PRANDTL NUMBER    0.6290   0.6292   0.6293   0.6276   0.6277   0.6278   0.6279   0.6280

  WITH FROZEN REACTIONS

 Cp, KJ/(KG)(K)   20.6493  20.6486  20.6480  20.6598  20.6590  20.6582  20.6574  20.6566
 CONDUCTIVITY     27.0585  27.0755  27.0925  27.0766  27.0914  27.1064  27.1214  27.1366
 PRANDTL NUMBER    0.7009   0.7007   0.7005   0.7060   0.7058   0.7056   0.7053   0.7051

 MOLE FRACTIONS

 *e-              0.00011  0.00011  0.00012  0.00009  0.00009  0.00009  0.00009  0.00009
 *H               0.92323  0.92383  0.92443  0.90684  0.90757  0.90829  0.90901  0.90972
 *H+              0.00011  0.00011  0.00011  0.00009  0.00009  0.00009  0.00009  0.00009
 *H-              0.00001  0.00001  0.00001  0.00001  0.00001  0.00001  0.00001  0.00001
 *H2              0.07653  0.07592  0.07533  0.09297  0.09223  0.09151  0.09079  0.09008
 *H2+             0.00001  0.00001  0.00001  0.00001  0.00001  0.00001  0.00001  0.00001

  * THERMODYNAMIC PROPERTIES FITTED TO 20000.K

 NOTE. WEIGHT FRACTION OF FUEL IN TOTAL FUELS AND OF OXIDANT IN TOTAL OXIDANTS









               THERMODYNAMIC EQUILIBRIUM PROPERTIES AT ASSIGNED

                           TEMPERATURE AND PRESSURE

 CASE =                

             REACTANT                    WT FRACTION      ENERGY      TEMP
                                          (SEE NOTE)     KJ/KG-MOL      K  
             H2                           1.0000000         0.000      0.000

 O/F=    0.00000  %FUEL=100.000000  R,EQ.RATIO= 0.000000  PHI,EQ.RATIO= 0.000000

 THERMODYNAMIC PROPERTIES

 P, BAR            225.00   225.00   225.00   225.00   225.00   225.00   225.00   225.00
 T, K             7700.00  7710.00  7720.00  7730.00  7740.00  7750.00  7760.00  7770.00
 RHO, KG/CU M    3.8586-1 3.8511-1 3.8437-1 3.8363-1 3.8289-1 3.8216-1 3.8143-1 3.8071-1
 H, KJ/KG        331304.9 331785.2 332263.5 332739.6 333213.7 333685.8 334155.8 334623.8
 U, KJ/KG        272993.8 273360.7 273725.8 274089.0 274450.3 274809.8 275167.4 275523.2
 G, KJ/KG       -685683.2-687004.3-688326.0-689648.3-690971.2-692294.8-693618.9-694943.7
 S, KJ/(KG)(K)   132.0764 132.1387 132.2007 132.2623 132.3236 132.3846 132.4452 132.5055

 M, (1/n)           1.098    1.097    1.097    1.096    1.095    1.094    1.094    1.093
 (dLV/dLP)t      -1.06864 -1.06825 -1.06785 -1.06746 -1.06707 -1.06668 -1.06629 -1.06591
 (dLV/dLT)p        1.4981   1.4946   1.4911   1.4877   1.4842   1.4808   1.4774   1.4741
 Cp, KJ/(KG)(K)   48.1358  47.9268  47.7192  47.5130  47.3082  47.1048  46.9027  46.7020
 GAMMAs            1.3975   1.3985   1.3995   1.4005   1.4015   1.4025   1.4035   1.4045
 SON VEL,M/SEC     9027.3   9039.2   9051.2   9063.1   9075.0   9086.9   9098.8   9110.7

 TRANSPORT PROPERTIES (GASES ONLY)
   CONDUCTIVITY IN UNITS OF MILLIWATTS/(CM)(K)

 VISC,MILLIPOISE  0.92661  0.92689  0.92717  0.92746  0.92775  0.92804  0.92834  0.92864

  WITH EQUILIBRIUM REACTIONS

 Cp, KJ/(KG)(K)   48.1358  47.9268  47.7192  47.5130  47.3082  47.1048  46.9027  46.7020
 CONDUCTIVITY     71.0086  70.7097  70.4129  70.1181  69.8254  69.5349  69.2464  68.9600
 PRANDTL NUMBER    0.6281   0.6282   0.6283   0.6285   0.6286   0.6287   0.6288   0.6289

  WITH FROZEN REACTIONS

 Cp, KJ/(KG)(K)   20.6558  20.6550  20.6542  20.6534  20.6526  20.6519  20.6511  20.6503
 CONDUCTIVITY     27.1518  27.1672  27.1826  27.1982  27.2138  27.2296  27.2454  27.2614
 PRANDTL NUMBER    0.7049   0.7047   0.7045   0.7043   0.7041   0.7039   0.7036   0.7034

 MOLE FRACTIONS

 *e-              0.00009  0.00010  0.00010  0.00010  0.00010  0.00010  0.00010  0.00010
 *H               0.91042  0.91112  0.91181  0.91250  0.91318  0.91385  0.91451  0.91517
 *H+              0.00009  0.00009  0.00010  0.00010  0.00010  0.00010  0.00010  0.00010
 *H-              0.00001  0.00001  0.00001  0.00001  0.00001  0.00001  0.00001  0.00001
 *H2              0.08937  0.08867  0.08797  0.08729  0.08661  0.08593  0.08526  0.08460
 *H2+             0.00001  0.00001  0.00001  0.00001  0.00001  0.00001  0.00001  0.00001

  * THERMODYNAMIC PROPERTIES FITTED TO 20000.K

 NOTE. WEIGHT FRACTION OF FUEL IN TOTAL FUELS AND OF OXIDANT IN TOTAL OXIDANTS









               THERMODYNAMIC EQUILIBRIUM PROPERTIES AT ASSIGNED

                           TEMPERATURE AND PRESSURE

 CASE =                

             REACTANT                    WT FRACTION      ENERGY      TEMP
                                          (SEE NOTE)     KJ/KG-MOL      K  
             H2                           1.0000000         0.000      0.000

 O/F=    0.00000  %FUEL=100.000000  R,EQ.RATIO= 0.000000  PHI,EQ.RATIO= 0.000000

 THERMODYNAMIC PROPERTIES

 P, BAR            225.00   225.00   250.00   250.00   250.00   250.00   250.00   250.00
 T, K             7780.00  7790.00  7650.00  7660.00  7670.00  7680.00  7690.00  7700.00
 RHO, KG/CU M    3.7999-1 3.7927-1 4.3630-1 4.3542-1 4.3455-1 4.3368-1 4.3281-1 4.3195-1
 H, KJ/KG        335089.9 335553.9 325645.1 326151.8 326656.3 327158.6 327658.8 328156.8
 U, KJ/KG        275877.2 276229.4 268345.5 268736.3 269125.0 269511.8 269896.6 270279.5
 G, KJ/KG       -696269.0-697595.0-673026.7-674332.5-675638.9-676946.0-678253.8-679562.2
 S, KJ/(KG)(K)   132.5654 132.6250 130.5453 130.6115 130.6773 130.7428 130.8079 130.8726

 M, (1/n)           1.092    1.092    1.110    1.109    1.108    1.108    1.107    1.106
 (dLV/dLP)t      -1.06552 -1.06514 -1.07517 -1.07476 -1.07435 -1.07394 -1.07354 -1.07313
 (dLV/dLT)p        1.4707   1.4674   1.5489   1.5452   1.5415   1.5379   1.5342   1.5306
 Cp, KJ/(KG)(K)   46.5028  46.3048  50.7753  50.5568  50.3396  50.1237  49.9089  49.6955
 GAMMAs            1.4054   1.4064   1.3864   1.3874   1.3884   1.3893   1.3903   1.3912
 SON VEL,M/SEC     9122.5   9134.3   8913.0   8925.1   8937.2   8949.3   8961.3   8973.4

 TRANSPORT PROPERTIES (GASES ONLY)
   CONDUCTIVITY IN UNITS OF MILLIWATTS/(CM)(K)

 VISC,MILLIPOISE  0.92894  0.92925  0.93513  0.93537  0.93561  0.93586  0.93611  0.93636

  WITH EQUILIBRIUM REACTIONS

 Cp, KJ/(KG)(K)   46.5028  46.3048  50.7753  50.5568  50.3396  50.1237  49.9089  49.6955
 CONDUCTIVITY     68.6757  68.3934  75.6401  75.3227  75.0073  74.6939  74.3824  74.0728
 PRANDTL NUMBER    0.6290   0.6291   0.6277   0.6278   0.6279   0.6280   0.6281   0.6282

  WITH FROZEN REACTIONS

 Cp, KJ/(KG)(K)   20.6495  20.6488  20.6616  20.6607  20.6598  20.6590  20.6581  20.6572
 CONDUCTIVITY     27.2774  27.2936  27.2793  27.2933  27.3075  27.3217  27.3360  27.3505
 PRANDTL NUMBER    0.7032   0.7030   0.7083   0.7081   0.7079   0.7076   0.7074   0.7072

 MOLE FRACTIONS

 *e-              0.00011  0.00011  0.00008  0.00008  0.00009  0.00009  0.00009  0.00009
 *H               0.91583  0.91647  0.89843  0.89921  0.89999  0.90076  0.90152  0.90227
 *H+              0.00011  0.00011  0.00008  0.00008  0.00008  0.00009  0.00009  0.00009
 *H-              0.00001  0.00001  0.00001  0.00001  0.00001  0.00001  0.00001  0.00001
 *H2              0.08394  0.08329  0.10139  0.10060  0.09982  0.09905  0.09829  0.09753
 *H2+             0.00001  0.00001  0.00001  0.00001  0.00001  0.00001  0.00001  0.00001

  * THERMODYNAMIC PROPERTIES FITTED TO 20000.K

 NOTE. WEIGHT FRACTION OF FUEL IN TOTAL FUELS AND OF OXIDANT IN TOTAL OXIDANTS









               THERMODYNAMIC EQUILIBRIUM PROPERTIES AT ASSIGNED

                           TEMPERATURE AND PRESSURE

 CASE =                

             REACTANT                    WT FRACTION      ENERGY      TEMP
                                          (SEE NOTE)     KJ/KG-MOL      K  
             H2                           1.0000000         0.000      0.000

 O/F=    0.00000  %FUEL=100.000000  R,EQ.RATIO= 0.000000  PHI,EQ.RATIO= 0.000000

 THERMODYNAMIC PROPERTIES

 P, BAR            250.00   250.00   250.00   250.00   250.00   250.00   250.00   250.00
 T, K             7710.00  7720.00  7730.00  7740.00  7750.00  7760.00  7770.00  7780.00
 RHO, KG/CU M    4.3109-1 4.3024-1 4.2939-1 4.2855-1 4.2772-1 4.2688-1 4.2605-1 4.2523-1
 H, KJ/KG        328652.7 329146.5 329638.1 330127.7 330615.2 331100.7 331584.0 332065.4
 U, KJ/KG        270660.5 271039.5 271416.6 271791.8 272165.1 272536.5 272906.1 273273.8
 G, KJ/KG       -680871.2-682180.9-683491.2-684802.2-686113.8-687426.0-688738.9-690052.3
 S, KJ/(KG)(K)   130.9370 131.0010 131.0646 131.1279 131.1908 131.2534 131.3157 131.3776

 M, (1/n)           1.105    1.105    1.104    1.103    1.102    1.102    1.101    1.100
 (dLV/dLP)t      -1.07273 -1.07233 -1.07193 -1.07153 -1.07114 -1.07074 -1.07035 -1.06996
 (dLV/dLT)p        1.5270   1.5235   1.5199   1.5164   1.5129   1.5094   1.5059   1.5025
 Cp, KJ/(KG)(K)   49.4833  49.2723  49.0626  48.8542  48.6471  48.4412  48.2367  48.0334
 GAMMAs            1.3922   1.3932   1.3941   1.3951   1.3961   1.3970   1.3980   1.3990
 SON VEL,M/SEC     8985.4   8997.4   9009.4   9021.3   9033.3   9045.2   9057.1   9069.0

 TRANSPORT PROPERTIES (GASES ONLY)
   CONDUCTIVITY IN UNITS OF MILLIWATTS/(CM)(K)

 VISC,MILLIPOISE  0.93661  0.93687  0.93713  0.93740  0.93767  0.93794  0.93821  0.93849

  WITH EQUILIBRIUM REACTIONS

 Cp, KJ/(KG)(K)   49.4833  49.2723  49.0626  48.8542  48.6471  48.4412  48.2367  48.0334
 CONDUCTIVITY     73.7652  73.4596  73.1559  72.8542  72.5544  72.2566  71.9608  71.6670
 PRANDTL NUMBER    0.6283   0.6284   0.6285   0.6286   0.6287   0.6288   0.6289   0.6290

  WITH FROZEN REACTIONS

 Cp, KJ/(KG)(K)   20.6564  20.6555  20.6547  20.6538  20.6529  20.6521  20.6513  20.6504
 CONDUCTIVITY     27.3650  27.3797  27.3944  27.4093  27.4242  27.4392  27.4544  27.4696
 PRANDTL NUMBER    0.7070   0.7068   0.7066   0.7064   0.7061   0.7059   0.7057   0.7055

 MOLE FRACTIONS

 *e-              0.00009  0.00009  0.00009  0.00009  0.00010  0.00010  0.00010  0.00010
 *H               0.90302  0.90377  0.90450  0.90523  0.90595  0.90667  0.90738  0.90808
 *H+              0.00009  0.00009  0.00009  0.00009  0.00010  0.00010  0.00010  0.00010
 *H-              0.00001  0.00001  0.00001  0.00001  0.00001  0.00001  0.00001  0.00001
 *H2              0.09678  0.09603  0.09529  0.09456  0.09384  0.09312  0.09240  0.09170
 *H2+             0.00001  0.00001  0.00001  0.00001  0.00001  0.00001  0.00001  0.00001

  * THERMODYNAMIC PROPERTIES FITTED TO 20000.K

 NOTE. WEIGHT FRACTION OF FUEL IN TOTAL FUELS AND OF OXIDANT IN TOTAL OXIDANTS









               THERMODYNAMIC EQUILIBRIUM PROPERTIES AT ASSIGNED

                           TEMPERATURE AND PRESSURE

 CASE =                

             REACTANT                    WT FRACTION      ENERGY      TEMP
                                          (SEE NOTE)     KJ/KG-MOL      K  
             H2                           1.0000000         0.000      0.000

 O/F=    0.00000  %FUEL=100.000000  R,EQ.RATIO= 0.000000  PHI,EQ.RATIO= 0.000000

 THERMODYNAMIC PROPERTIES

 P, BAR            250.00
 T, K             7790.00
 RHO, KG/CU M    4.2441-1
 H, KJ/KG        332544.7
 U, KJ/KG        273639.7
 G, KJ/KG       -691366.4
 S, KJ/(KG)(K)   131.4392

 M, (1/n)           1.100
 (dLV/dLP)t      -1.06957
 (dLV/dLT)p        1.4990
 Cp, KJ/(KG)(K)   47.8314
 GAMMAs            1.3999
 SON VEL,M/SEC     9080.9

 TRANSPORT PROPERTIES (GASES ONLY)
   CONDUCTIVITY IN UNITS OF MILLIWATTS/(CM)(K)

 VISC,MILLIPOISE  0.93878

  WITH EQUILIBRIUM REACTIONS

 Cp, KJ/(KG)(K)   47.8314
 CONDUCTIVITY     71.3751
 PRANDTL NUMBER    0.6291

  WITH FROZEN REACTIONS

 Cp, KJ/(KG)(K)   20.6496
 CONDUCTIVITY     27.4850
 PRANDTL NUMBER    0.7053

 MOLE FRACTIONS

 *e-              0.00010
 *H               0.90878
 *H+              0.00010
 *H-              0.00001
 *H2              0.09100
 *H2+             0.00001

  * THERMODYNAMIC PROPERTIES FITTED TO 20000.K

 NOTE. WEIGHT FRACTION OF FUEL IN TOTAL FUELS AND OF OXIDANT IN TOTAL OXIDANTS



  
