
 *******************************************************************************

         NASA-GLENN CHEMICAL EQUILIBRIUM PROGRAM CEA2, MAY 21, 2004
                   BY  BONNIE MCBRIDE AND SANFORD GORDON
      REFS: NASA RP-1311, PART I, 1994 AND NASA RP-1311, PART II, 1996

 *******************************************************************************



  prob tp ions
  p,bar= 12.0,13.2,14.8,16.5,18.0,20.0,22.5,25.0,28.0,31.0,35.0,39.0,44.0,49.0,54
 .0
  t,k= 6150,6160,6170,6180,6190,6200,6210,6220,6230,6240,6250,6260,6270,6280,6290
  
  reac
  na H2                wt%=100.0000
  
  output short
  output siunits
  output transport
  
 end





               THERMODYNAMIC EQUILIBRIUM PROPERTIES AT ASSIGNED

                           TEMPERATURE AND PRESSURE

 CASE =                

             REACTANT                    WT FRACTION      ENERGY      TEMP
                                          (SEE NOTE)     KJ/KG-MOL      K  
             H2                           1.0000000         0.000      0.000

 O/F=    0.00000  %FUEL=100.000000  R,EQ.RATIO= 0.000000  PHI,EQ.RATIO= 0.000000

 THERMODYNAMIC PROPERTIES

 P, BAR            12.000   12.000   12.000   12.000   12.000   12.000   12.000   12.000
 T, K             6150.00  6160.00  6170.00  6180.00  6190.00  6200.00  6210.00  6220.00
 RHO, KG/CU M    2.4444-2 2.4393-2 2.4343-2 2.4293-2 2.4244-2 2.4194-2 2.4146-2 2.4097-2
 H, KJ/KG        322088.7 322493.7 322895.6 323294.7 323690.8 324084.1 324474.6 324862.4
 U, KJ/KG        272996.2 273299.5 273600.1 273898.0 274193.3 274485.9 274776.0 275063.6
 G, KJ/KG       -622519.9-624056.2-625593.1-627130.7-628668.9-630207.8-631747.3-633287.4
 S, KJ/(KG)(K)   153.5949 153.6607 153.7259 153.7905 153.8546 153.9180 153.9810 154.0434

 M, (1/n)           1.042    1.041    1.041    1.040    1.040    1.039    1.039    1.039
 (dLV/dLP)t      -1.03025 -1.02988 -1.02951 -1.02915 -1.02879 -1.02843 -1.02808 -1.02774
 (dLV/dLT)p        1.2752   1.2713   1.2676   1.2638   1.2602   1.2566   1.2530   1.2495
 Cp, KJ/(KG)(K)   40.6467  40.3458  40.0496  39.7581  39.4714  39.1892  38.9115  38.6383
 GAMMAs            1.4066   1.4086   1.4105   1.4124   1.4143   1.4162   1.4181   1.4200
 SON VEL,M/SEC     8310.0   8324.2   8338.5   8352.7   8366.8   8381.0   8395.1   8409.2

 TRANSPORT PROPERTIES (GASES ONLY)
   CONDUCTIVITY IN UNITS OF MILLIWATTS/(CM)(K)

 VISC,MILLIPOISE  0.69106  0.69152  0.69198  0.69245  0.69293  0.69341  0.69390  0.69440

  WITH EQUILIBRIUM REACTIONS

 Cp, KJ/(KG)(K)   40.6467  40.3458  40.0496  39.7581  39.4714  39.1892  38.9115  38.6383
 CONDUCTIVITY     45.6321  45.3021  44.9776  44.6584  44.3445  44.0358  43.7322  43.4337
 PRANDTL NUMBER    0.6156   0.6159   0.6162   0.6165   0.6168   0.6171   0.6174   0.6177

  WITH FROZEN REACTIONS

 Cp, KJ/(KG)(K)   20.6301  20.6297  20.6294  20.6290  20.6287  20.6284  20.6281  20.6278
 CONDUCTIVITY     20.8485  20.8688  20.8891  20.9096  20.9303  20.9511  20.9720  20.9930
 PRANDTL NUMBER    0.6838   0.6836   0.6834   0.6832   0.6829   0.6827   0.6825   0.6823

 MOLE FRACTIONS

 *e-              0.00002  0.00002  0.00003  0.00003  0.00003  0.00003  0.00003  0.00003
 *H               0.96654  0.96700  0.96745  0.96789  0.96833  0.96876  0.96918  0.96959
 *H+              0.00002  0.00002  0.00002  0.00003  0.00003  0.00003  0.00003  0.00003
 *H2              0.03341  0.03295  0.03250  0.03206  0.03162  0.03119  0.03077  0.03035

  * THERMODYNAMIC PROPERTIES FITTED TO 20000.K

 NOTE. WEIGHT FRACTION OF FUEL IN TOTAL FUELS AND OF OXIDANT IN TOTAL OXIDANTS









               THERMODYNAMIC EQUILIBRIUM PROPERTIES AT ASSIGNED

                           TEMPERATURE AND PRESSURE

 CASE =                

             REACTANT                    WT FRACTION      ENERGY      TEMP
                                          (SEE NOTE)     KJ/KG-MOL      K  
             H2                           1.0000000         0.000      0.000

 O/F=    0.00000  %FUEL=100.000000  R,EQ.RATIO= 0.000000  PHI,EQ.RATIO= 0.000000

 THERMODYNAMIC PROPERTIES

 P, BAR            12.000   12.000   12.000   12.000   12.000   12.000   12.000   13.200
 T, K             6230.00  6240.00  6250.00  6260.00  6270.00  6280.00  6290.00  6150.00
 RHO, KG/CU M    2.4049-2 2.4001-2 2.3953-2 2.3906-2 2.3859-2 2.3812-2 2.3765-2 2.6969-2
 H, KJ/KG        325247.4 325629.8 326009.5 326386.7 326761.3 327133.4 327503.1 320750.4
 U, KJ/KG        275348.7 275631.4 275911.7 276189.6 276465.3 276738.6 277009.7 271805.1
 G, KJ/KG       -634828.1-636369.5-637911.5-639454.1-640997.2-642541.0-644085.4-617847.8
 S, KJ/(KG)(K)   154.1052 154.1666 154.2274 154.2877 154.3475 154.4068 154.4656 152.6176

 M, (1/n)           1.038    1.038    1.037    1.037    1.037    1.036    1.036    1.045
 (dLV/dLP)t      -1.02740 -1.02706 -1.02673 -1.02640 -1.02608 -1.02576 -1.02545 -1.03276
 (dLV/dLT)p        1.2461   1.2427   1.2393   1.2360   1.2328   1.2296   1.2264   1.2980
 Cp, KJ/(KG)(K)   38.3695  38.1051  37.8449  37.5889  37.3371  37.0893  36.8456  42.2328
 GAMMAs            1.4219   1.4238   1.4257   1.4276   1.4294   1.4313   1.4332   1.3980
 SON VEL,M/SEC     8423.2   8437.2   8451.2   8465.2   8479.1   8493.0   8506.9   8272.1

 TRANSPORT PROPERTIES (GASES ONLY)
   CONDUCTIVITY IN UNITS OF MILLIWATTS/(CM)(K)

 VISC,MILLIPOISE  0.69490  0.69541  0.69593  0.69645  0.69698  0.69751  0.69805  0.69481

  WITH EQUILIBRIUM REACTIONS

 Cp, KJ/(KG)(K)   38.3695  38.1051  37.8449  37.5889  37.3371  37.0893  36.8456  42.2328
 CONDUCTIVITY     43.1402  42.8515  42.5678  42.2887  42.0144  41.7448  41.4797  47.7566
 PRANDTL NUMBER    0.6181   0.6184   0.6187   0.6191   0.6194   0.6197   0.6201   0.6144

  WITH FROZEN REACTIONS

 Cp, KJ/(KG)(K)   20.6275  20.6273  20.6270  20.6268  20.6266  20.6264  20.6262  20.6316
 CONDUCTIVITY     21.0141  21.0354  21.0568  21.0784  21.1000  21.1218  21.1436  20.9200
 PRANDTL NUMBER    0.6821   0.6819   0.6817   0.6815   0.6813   0.6812   0.6810   0.6852

 MOLE FRACTIONS

 *e-              0.00003  0.00003  0.00003  0.00003  0.00003  0.00003  0.00003  0.00002
 *H               0.97000  0.97040  0.97080  0.97119  0.97157  0.97194  0.97232  0.96344
 *H+              0.00003  0.00003  0.00003  0.00003  0.00003  0.00003  0.00003  0.00002
 *H2              0.02994  0.02954  0.02914  0.02875  0.02837  0.02799  0.02762  0.03651

  * THERMODYNAMIC PROPERTIES FITTED TO 20000.K

 NOTE. WEIGHT FRACTION OF FUEL IN TOTAL FUELS AND OF OXIDANT IN TOTAL OXIDANTS









               THERMODYNAMIC EQUILIBRIUM PROPERTIES AT ASSIGNED

                           TEMPERATURE AND PRESSURE

 CASE =                

             REACTANT                    WT FRACTION      ENERGY      TEMP
                                          (SEE NOTE)     KJ/KG-MOL      K  
             H2                           1.0000000         0.000      0.000

 O/F=    0.00000  %FUEL=100.000000  R,EQ.RATIO= 0.000000  PHI,EQ.RATIO= 0.000000

 THERMODYNAMIC PROPERTIES

 P, BAR            13.200   13.200   13.200   13.200   13.200   13.200   13.200   13.200
 T, K             6160.00  6170.00  6180.00  6190.00  6200.00  6210.00  6220.00  6230.00
 RHO, KG/CU M    2.6912-2 2.6856-2 2.6800-2 2.6744-2 2.6689-2 2.6634-2 2.6580-2 2.6526-2
 H, KJ/KG        321171.2 321588.7 322003.1 322414.5 322822.8 323228.1 323630.5 324030.0
 U, KJ/KG        272122.7 272437.3 272749.1 273058.1 273364.4 273667.9 273968.7 274266.9
 G, KJ/KG       -619374.3-620901.5-622429.4-623957.9-625487.1-627017.0-628547.5-630078.7
 S, KJ/(KG)(K)   152.6860 152.7537 152.8208 152.8873 152.9532 153.0185 153.0833 153.1475

 M, (1/n)           1.044    1.044    1.043    1.043    1.042    1.042    1.041    1.041
 (dLV/dLP)t      -1.03236 -1.03197 -1.03158 -1.03120 -1.03082 -1.03045 -1.03008 -1.02971
 (dLV/dLT)p        1.2939   1.2898   1.2858   1.2819   1.2781   1.2743   1.2705   1.2668
 Cp, KJ/(KG)(K)   41.9128  41.5976  41.2874  40.9820  40.6813  40.3854  40.0940  39.8073
 GAMMAs            1.3999   1.4018   1.4037   1.4056   1.4074   1.4093   1.4112   1.4130
 SON VEL,M/SEC     8286.4   8300.6   8314.8   8329.0   8343.2   8357.4   8371.5   8385.6

 TRANSPORT PROPERTIES (GASES ONLY)
   CONDUCTIVITY IN UNITS OF MILLIWATTS/(CM)(K)

 VISC,MILLIPOISE  0.69523  0.69566  0.69610  0.69654  0.69699  0.69744  0.69791  0.69838

  WITH EQUILIBRIUM REACTIONS

 Cp, KJ/(KG)(K)   41.9128  41.5976  41.2874  40.9820  40.6813  40.3854  40.0940  39.8073
 CONDUCTIVITY     47.4021  47.0533  46.7100  46.3723  46.0400  45.7131  45.3914  45.0749
 PRANDTL NUMBER    0.6147   0.6150   0.6153   0.6156   0.6159   0.6162   0.6165   0.6168

  WITH FROZEN REACTIONS

 Cp, KJ/(KG)(K)   20.6312  20.6308  20.6305  20.6301  20.6298  20.6295  20.6292  20.6290
 CONDUCTIVITY     20.9395  20.9591  20.9789  20.9989  21.0189  21.0391  21.0595  21.0799
 PRANDTL NUMBER    0.6850   0.6848   0.6845   0.6843   0.6841   0.6839   0.6836   0.6834

 MOLE FRACTIONS

 *e-              0.00002  0.00002  0.00002  0.00003  0.00003  0.00003  0.00003  0.00003
 *H               0.96394  0.96442  0.96491  0.96538  0.96584  0.96630  0.96675  0.96720
 *H+              0.00002  0.00002  0.00002  0.00002  0.00003  0.00003  0.00003  0.00003
 *H2              0.03602  0.03553  0.03504  0.03457  0.03410  0.03364  0.03319  0.03275

  * THERMODYNAMIC PROPERTIES FITTED TO 20000.K

 NOTE. WEIGHT FRACTION OF FUEL IN TOTAL FUELS AND OF OXIDANT IN TOTAL OXIDANTS









               THERMODYNAMIC EQUILIBRIUM PROPERTIES AT ASSIGNED

                           TEMPERATURE AND PRESSURE

 CASE =                

             REACTANT                    WT FRACTION      ENERGY      TEMP
                                          (SEE NOTE)     KJ/KG-MOL      K  
             H2                           1.0000000         0.000      0.000

 O/F=    0.00000  %FUEL=100.000000  R,EQ.RATIO= 0.000000  PHI,EQ.RATIO= 0.000000

 THERMODYNAMIC PROPERTIES

 P, BAR            13.200   13.200   13.200   13.200   13.200   13.200   14.800   14.800
 T, K             6240.00  6250.00  6260.00  6270.00  6280.00  6290.00  6150.00  6160.00
 RHO, KG/CU M    2.6472-2 2.6418-2 2.6365-2 2.6313-2 2.6260-2 2.6208-2 3.0357-2 3.0292-2
 H, KJ/KG        324426.7 324820.5 325211.6 325600.0 325985.7 326368.8 319004.4 319445.3
 U, KJ/KG        274562.5 274855.5 275146.0 275434.1 275719.7 276002.9 270251.1 270586.9
 G, KJ/KG       -631610.5-633142.9-634675.9-636209.6-637743.9-639278.8-612258.8-613773.4
 S, KJ/(KG)(K)   153.2111 153.2741 153.3367 153.3987 153.4601 153.5211 151.4249 151.4965

 M, (1/n)           1.040    1.040    1.040    1.039    1.039    1.038    1.049    1.048
 (dLV/dLP)t      -1.02935 -1.02900 -1.02865 -1.02831 -1.02797 -1.02763 -1.03598 -1.03555
 (dLV/dLT)p        1.2632   1.2596   1.2561   1.2526   1.2492   1.2458   1.3272   1.3228
 Cp, KJ/(KG)(K)   39.5250  39.2472  38.9737  38.7046  38.4397  38.1791  44.2551  43.9119
 GAMMAs            1.4149   1.4168   1.4186   1.4205   1.4224   1.4242   1.3880   1.3899
 SON VEL,M/SEC     8399.6   8413.7   8427.7   8441.6   8455.6   8469.5   8226.2   8240.5

 TRANSPORT PROPERTIES (GASES ONLY)
   CONDUCTIVITY IN UNITS OF MILLIWATTS/(CM)(K)

 VISC,MILLIPOISE  0.69885  0.69933  0.69982  0.70032  0.70082  0.70133  0.69968  0.70005

  WITH EQUILIBRIUM REACTIONS

 Cp, KJ/(KG)(K)   39.5250  39.2472  38.9737  38.7046  38.4397  38.1791  44.2551  43.9119
 CONDUCTIVITY     44.7636  44.4574  44.1561  43.8598  43.5684  43.2817  50.4873  50.1027
 PRANDTL NUMBER    0.6171   0.6174   0.6177   0.6180   0.6183   0.6186   0.6133   0.6136

  WITH FROZEN REACTIONS

 Cp, KJ/(KG)(K)   20.6287  20.6285  20.6282  20.6280  20.6278  20.6276  20.6334  20.6331
 CONDUCTIVITY     21.1005  21.1213  21.1421  21.1631  21.1842  21.2055  21.0132  21.0318
 PRANDTL NUMBER    0.6832   0.6830   0.6828   0.6826   0.6824   0.6822   0.6870   0.6868

 MOLE FRACTIONS

 *e-              0.00003  0.00003  0.00003  0.00003  0.00003  0.00003  0.00002  0.00002
 *H               0.96764  0.96807  0.96849  0.96890  0.96932  0.96972  0.95936  0.95991
 *H+              0.00003  0.00003  0.00003  0.00003  0.00003  0.00003  0.00002  0.00002
 *H2              0.03231  0.03188  0.03145  0.03103  0.03062  0.03022  0.04059  0.04005

  * THERMODYNAMIC PROPERTIES FITTED TO 20000.K

 NOTE. WEIGHT FRACTION OF FUEL IN TOTAL FUELS AND OF OXIDANT IN TOTAL OXIDANTS









               THERMODYNAMIC EQUILIBRIUM PROPERTIES AT ASSIGNED

                           TEMPERATURE AND PRESSURE

 CASE =                

             REACTANT                    WT FRACTION      ENERGY      TEMP
                                          (SEE NOTE)     KJ/KG-MOL      K  
             H2                           1.0000000         0.000      0.000

 O/F=    0.00000  %FUEL=100.000000  R,EQ.RATIO= 0.000000  PHI,EQ.RATIO= 0.000000

 THERMODYNAMIC PROPERTIES

 P, BAR            14.800   14.800   14.800   14.800   14.800   14.800   14.800   14.800
 T, K             6170.00  6180.00  6190.00  6200.00  6210.00  6220.00  6230.00  6240.00
 RHO, KG/CU M    3.0227-2 3.0162-2 3.0099-2 3.0035-2 2.9972-2 2.9909-2 2.9847-2 2.9785-2
 H, KJ/KG        319882.7 320316.8 320747.5 321175.0 321599.3 322020.5 322438.5 322853.5
 U, KJ/KG        270919.5 271249.1 271575.7 271899.2 272219.9 272537.7 272852.6 273164.8
 G, KJ/KG       -615288.7-616804.7-618321.5-619838.9-621357.0-622875.8-624395.2-625915.4
 S, KJ/(KG)(K)   151.5675 151.6378 151.7074 151.7764 151.8448 151.9126 151.9797 152.0463

 M, (1/n)           1.048    1.047    1.047    1.046    1.046    1.045    1.045    1.044
 (dLV/dLP)t      -1.03513 -1.03471 -1.03430 -1.03389 -1.03349 -1.03309 -1.03270 -1.03231
 (dLV/dLT)p        1.3184   1.3142   1.3099   1.3057   1.3016   1.2976   1.2936   1.2896
 Cp, KJ/(KG)(K)   43.5738  43.2407  42.9126  42.5895  42.2712  41.9577  41.6489  41.3448
 GAMMAs            1.3917   1.3935   1.3954   1.3972   1.3990   1.4009   1.4027   1.4045
 SON VEL,M/SEC     8254.8   8269.0   8283.3   8297.5   8311.6   8325.8   8339.9   8354.0

 TRANSPORT PROPERTIES (GASES ONLY)
   CONDUCTIVITY IN UNITS OF MILLIWATTS/(CM)(K)

 VISC,MILLIPOISE  0.70044  0.70083  0.70123  0.70163  0.70204  0.70246  0.70289  0.70332

  WITH EQUILIBRIUM REACTIONS

 Cp, KJ/(KG)(K)   43.5738  43.2407  42.9126  42.5895  42.2712  41.9577  41.6489  41.3448
 CONDUCTIVITY     49.7240  49.3510  48.9838  48.6223  48.2664  47.9160  47.5711  47.2315
 PRANDTL NUMBER    0.6138   0.6141   0.6143   0.6146   0.6148   0.6151   0.6154   0.6157

  WITH FROZEN REACTIONS

 Cp, KJ/(KG)(K)   20.6327  20.6324  20.6320  20.6317  20.6314  20.6311  20.6309  20.6306
 CONDUCTIVITY     21.0505  21.0694  21.0884  21.1076  21.1269  21.1464  21.1660  21.1857
 PRANDTL NUMBER    0.6865   0.6863   0.6860   0.6858   0.6856   0.6853   0.6851   0.6849

 MOLE FRACTIONS

 *e-              0.00002  0.00002  0.00002  0.00002  0.00002  0.00003  0.00003  0.00003
 *H               0.96045  0.96098  0.96150  0.96202  0.96252  0.96302  0.96351  0.96399
 *H+              0.00002  0.00002  0.00002  0.00002  0.00002  0.00003  0.00003  0.00003
 *H2              0.03951  0.03897  0.03845  0.03793  0.03743  0.03693  0.03644  0.03595

  * THERMODYNAMIC PROPERTIES FITTED TO 20000.K

 NOTE. WEIGHT FRACTION OF FUEL IN TOTAL FUELS AND OF OXIDANT IN TOTAL OXIDANTS









               THERMODYNAMIC EQUILIBRIUM PROPERTIES AT ASSIGNED

                           TEMPERATURE AND PRESSURE

 CASE =                

             REACTANT                    WT FRACTION      ENERGY      TEMP
                                          (SEE NOTE)     KJ/KG-MOL      K  
             H2                           1.0000000         0.000      0.000

 O/F=    0.00000  %FUEL=100.000000  R,EQ.RATIO= 0.000000  PHI,EQ.RATIO= 0.000000

 THERMODYNAMIC PROPERTIES

 P, BAR            14.800   14.800   14.800   14.800   14.800   16.500   16.500   16.500
 T, K             6250.00  6260.00  6270.00  6280.00  6290.00  6150.00  6160.00  6170.00
 RHO, KG/CU M    2.9724-2 2.9663-2 2.9603-2 2.9542-2 2.9483-2 3.3982-2 3.3908-2 3.3834-2
 H, KJ/KG        323265.4 323674.4 324080.4 324483.6 324883.9 317195.5 317656.6 318114.1
 U, KJ/KG        273474.1 273780.8 274084.8 274386.2 274685.0 268641.1 268995.2 269346.0
 G, KJ/KG       -627436.2-628957.6-630479.7-632002.5-633525.8-606968.3-608471.4-609975.2
 S, KJ/(KG)(K)   152.1123 152.1776 152.2424 152.3067 152.3704 150.2705 150.3455 150.4197

 M, (1/n)           1.044    1.043    1.043    1.042    1.042    1.053    1.053    1.052
 (dLV/dLP)t      -1.03193 -1.03155 -1.03118 -1.03081 -1.03045 -1.03926 -1.03880 -1.03835
 (dLV/dLT)p        1.2858   1.2819   1.2782   1.2744   1.2708   1.3570   1.3523   1.3476
 Cp, KJ/(KG)(K)   41.0453  40.7504  40.4600  40.1740  39.8924  46.2943  45.9291  45.5692
 GAMMAs            1.4064   1.4082   1.4100   1.4118   1.4137   1.3789   1.3807   1.3824
 SON VEL,M/SEC     8368.1   8382.1   8396.1   8410.1   8424.1   8182.3   8196.6   8210.9

 TRANSPORT PROPERTIES (GASES ONLY)
   CONDUCTIVITY IN UNITS OF MILLIWATTS/(CM)(K)

 VISC,MILLIPOISE  0.70376  0.70421  0.70467  0.70513  0.70559  0.70468  0.70502  0.70536

  WITH EQUILIBRIUM REACTIONS

 Cp, KJ/(KG)(K)   41.0453  40.7504  40.4600  40.1740  39.8924  46.2943  45.9291  45.5692
 CONDUCTIVITY     46.8973  46.5684  46.2446  45.9260  45.6124  53.2676  52.8538  52.4460
 PRANDTL NUMBER    0.6159   0.6162   0.6165   0.6168   0.6171   0.6124   0.6126   0.6129

  WITH FROZEN REACTIONS

 Cp, KJ/(KG)(K)   20.6303  20.6301  20.6299  20.6297  20.6295  20.6354  20.6350  20.6347
 CONDUCTIVITY     21.2056  21.2256  21.2458  21.2661  21.2865  21.1099  21.1275  21.1453
 PRANDTL NUMBER    0.6847   0.6845   0.6842   0.6840   0.6838   0.6888   0.6886   0.6883

 MOLE FRACTIONS

 *e-              0.00003  0.00003  0.00003  0.00003  0.00003  0.00002  0.00002  0.00002
 *H               0.96447  0.96494  0.96540  0.96585  0.96630  0.95510  0.95570  0.95629
 *H+              0.00003  0.00003  0.00003  0.00003  0.00003  0.00002  0.00002  0.00002
 *H2              0.03548  0.03501  0.03454  0.03409  0.03364  0.04486  0.04425  0.04366

  * THERMODYNAMIC PROPERTIES FITTED TO 20000.K

 NOTE. WEIGHT FRACTION OF FUEL IN TOTAL FUELS AND OF OXIDANT IN TOTAL OXIDANTS









               THERMODYNAMIC EQUILIBRIUM PROPERTIES AT ASSIGNED

                           TEMPERATURE AND PRESSURE

 CASE =                

             REACTANT                    WT FRACTION      ENERGY      TEMP
                                          (SEE NOTE)     KJ/KG-MOL      K  
             H2                           1.0000000         0.000      0.000

 O/F=    0.00000  %FUEL=100.000000  R,EQ.RATIO= 0.000000  PHI,EQ.RATIO= 0.000000

 THERMODYNAMIC PROPERTIES

 P, BAR            16.500   16.500   16.500   16.500   16.500   16.500   16.500   16.500
 T, K             6180.00  6190.00  6200.00  6210.00  6220.00  6230.00  6240.00  6250.00
 RHO, KG/CU M    3.3760-2 3.3687-2 3.3614-2 3.3542-2 3.3471-2 3.3400-2 3.3329-2 3.3259-2
 H, KJ/KG        318568.0 319018.4 319465.3 319908.8 320349.0 320785.8 321219.3 321649.6
 U, KJ/KG        269693.6 270037.9 270379.1 270717.1 271052.1 271384.0 271712.9 272038.9
 G, KJ/KG       -611479.8-612985.1-614491.1-615997.9-617505.3-619013.5-620522.3-622031.9
 S, KJ/(KG)(K)   150.4932 150.5660 150.6381 150.7096 150.7804 150.8506 150.9201 150.9890

 M, (1/n)           1.051    1.051    1.050    1.050    1.049    1.049    1.048    1.047
 (dLV/dLP)t      -1.03790 -1.03746 -1.03703 -1.03660 -1.03617 -1.03575 -1.03533 -1.03492
 (dLV/dLT)p        1.3430   1.3385   1.3340   1.3296   1.3252   1.3209   1.3167   1.3125
 Cp, KJ/(KG)(K)   45.2144  44.8648  44.5201  44.1804  43.8457  43.5158  43.1908  42.8705
 GAMMAs            1.3842   1.3860   1.3878   1.3896   1.3914   1.3932   1.3950   1.3968
 SON VEL,M/SEC     8225.2   8239.4   8253.6   8267.8   8281.9   8296.1   8310.2   8324.3

 TRANSPORT PROPERTIES (GASES ONLY)
   CONDUCTIVITY IN UNITS OF MILLIWATTS/(CM)(K)

 VISC,MILLIPOISE  0.70570  0.70606  0.70642  0.70679  0.70717  0.70755  0.70794  0.70834

  WITH EQUILIBRIUM REACTIONS

 Cp, KJ/(KG)(K)   45.2144  44.8648  44.5201  44.1804  43.8457  43.5158  43.1908  42.8705
 CONDUCTIVITY     52.0443  51.6485  51.2585  50.8744  50.4960  50.1232  49.7561  49.3945
 PRANDTL NUMBER    0.6131   0.6133   0.6136   0.6138   0.6140   0.6143   0.6145   0.6148

  WITH FROZEN REACTIONS

 Cp, KJ/(KG)(K)   20.6343  20.6340  20.6337  20.6334  20.6331  20.6328  20.6326  20.6323
 CONDUCTIVITY     21.1633  21.1814  21.1997  21.2181  21.2367  21.2554  21.2743  21.2933
 PRANDTL NUMBER    0.6881   0.6878   0.6876   0.6873   0.6871   0.6868   0.6866   0.6864

 MOLE FRACTIONS

 *e-              0.00002  0.00002  0.00002  0.00002  0.00002  0.00002  0.00002  0.00003
 *H               0.95688  0.95745  0.95801  0.95857  0.95912  0.95965  0.96018  0.96071
 *H+              0.00002  0.00002  0.00002  0.00002  0.00002  0.00002  0.00002  0.00003
 *H2              0.04308  0.04251  0.04194  0.04138  0.04084  0.04030  0.03977  0.03924

  * THERMODYNAMIC PROPERTIES FITTED TO 20000.K

 NOTE. WEIGHT FRACTION OF FUEL IN TOTAL FUELS AND OF OXIDANT IN TOTAL OXIDANTS









               THERMODYNAMIC EQUILIBRIUM PROPERTIES AT ASSIGNED

                           TEMPERATURE AND PRESSURE

 CASE =                

             REACTANT                    WT FRACTION      ENERGY      TEMP
                                          (SEE NOTE)     KJ/KG-MOL      K  
             H2                           1.0000000         0.000      0.000

 O/F=    0.00000  %FUEL=100.000000  R,EQ.RATIO= 0.000000  PHI,EQ.RATIO= 0.000000

 THERMODYNAMIC PROPERTIES

 P, BAR            16.500   16.500   16.500   16.500   18.000   18.000   18.000   18.000
 T, K             6260.00  6270.00  6280.00  6290.00  6150.00  6160.00  6170.00  6180.00
 RHO, KG/CU M    3.3189-2 3.3120-2 3.3052-2 3.2983-2 3.7203-2 3.7120-2 3.7037-2 3.6955-2
 H, KJ/KG        322076.7 322500.7 322921.6 323339.5 315637.3 316115.4 316589.8 317060.4
 U, KJ/KG        272361.9 272682.2 272999.6 273314.2 267254.2 267623.8 267989.9 268352.5
 G, KJ/KG       -623542.1-625053.0-626564.6-628076.9-602750.9-604244.6-605739.1-607234.3
 S, KJ/(KG)(K)   151.0573 151.1250 151.1921 151.2586 149.3314 149.4091 149.4860 149.5623

 M, (1/n)           1.047    1.046    1.046    1.045    1.057    1.056    1.056    1.055
 (dLV/dLP)t      -1.03452 -1.03412 -1.03372 -1.03333 -1.04203 -1.04155 -1.04108 -1.04061
 (dLV/dLT)p        1.3084   1.3044   1.3004   1.2964   1.3822   1.3772   1.3723   1.3675
 Cp, KJ/(KG)(K)   42.5548  42.2439  41.9375  41.6357  48.0053  47.6229  47.2458  46.8738
 GAMMAs            1.3985   1.4003   1.4021   1.4039   1.3718   1.3736   1.3753   1.3771
 SON VEL,M/SEC     8338.4   8352.4   8366.4   8380.4   8147.0   8161.3   8175.6   8189.8

 TRANSPORT PROPERTIES (GASES ONLY)
   CONDUCTIVITY IN UNITS OF MILLIWATTS/(CM)(K)

 VISC,MILLIPOISE  0.70875  0.70916  0.70958  0.71001  0.70897  0.70927  0.70957  0.70988

  WITH EQUILIBRIUM REACTIONS

 Cp, KJ/(KG)(K)   42.5548  42.2439  41.9375  41.6357  48.0053  47.6229  47.2458  46.8738
 CONDUCTIVITY     49.0384  48.6877  48.3423  48.0022  55.6225  55.1852  54.7540  54.3290
 PRANDTL NUMBER    0.6150   0.6153   0.6156   0.6158   0.6119   0.6121   0.6123   0.6125

  WITH FROZEN REACTIONS

 Cp, KJ/(KG)(K)   20.6321  20.6319  20.6317  20.6315  20.6371  20.6367  20.6364  20.6360
 CONDUCTIVITY     21.3124  21.3317  21.3512  21.3708  21.1931  21.2100  21.2270  21.2442
 PRANDTL NUMBER    0.6861   0.6859   0.6857   0.6854   0.6904   0.6901   0.6898   0.6896

 MOLE FRACTIONS

 *e-              0.00003  0.00003  0.00003  0.00003  0.00002  0.00002  0.00002  0.00002
 *H               0.96122  0.96173  0.96222  0.96271  0.95140  0.95205  0.95269  0.95331
 *H+              0.00003  0.00003  0.00003  0.00003  0.00002  0.00002  0.00002  0.00002
 *H2              0.03873  0.03822  0.03772  0.03723  0.04856  0.04791  0.04727  0.04665

  * THERMODYNAMIC PROPERTIES FITTED TO 20000.K

 NOTE. WEIGHT FRACTION OF FUEL IN TOTAL FUELS AND OF OXIDANT IN TOTAL OXIDANTS









               THERMODYNAMIC EQUILIBRIUM PROPERTIES AT ASSIGNED

                           TEMPERATURE AND PRESSURE

 CASE =                

             REACTANT                    WT FRACTION      ENERGY      TEMP
                                          (SEE NOTE)     KJ/KG-MOL      K  
             H2                           1.0000000         0.000      0.000

 O/F=    0.00000  %FUEL=100.000000  R,EQ.RATIO= 0.000000  PHI,EQ.RATIO= 0.000000

 THERMODYNAMIC PROPERTIES

 P, BAR            18.000   18.000   18.000   18.000   18.000   18.000   18.000   18.000
 T, K             6190.00  6200.00  6210.00  6220.00  6230.00  6240.00  6250.00  6260.00
 RHO, KG/CU M    3.6874-2 3.6793-2 3.6712-2 3.6633-2 3.6554-2 3.6475-2 3.6397-2 3.6319-2
 H, KJ/KG        317527.3 317990.5 318450.2 318906.3 319358.9 319808.1 320253.9 320696.4
 U, KJ/KG        268711.8 269067.8 269420.4 269769.9 270116.1 270459.2 270799.2 271136.1
 G, KJ/KG       -608730.3-610227.1-611724.6-613222.8-614721.8-616221.5-617721.9-619223.0
 S, KJ/(KG)(K)   149.6377 149.7125 149.7866 149.8600 149.9327 150.0047 150.0761 150.1469

 M, (1/n)           1.054    1.054    1.053    1.053    1.052    1.051    1.051    1.050
 (dLV/dLP)t      -1.04014 -1.03969 -1.03923 -1.03879 -1.03834 -1.03791 -1.03747 -1.03705
 (dLV/dLT)p        1.3627   1.3580   1.3533   1.3487   1.3442   1.3397   1.3353   1.3310
 Cp, KJ/(KG)(K)   46.5071  46.1454  45.7887  45.4370  45.0903  44.7485  44.4115  44.0793
 GAMMAs            1.3788   1.3805   1.3823   1.3840   1.3858   1.3875   1.3893   1.3911
 SON VEL,M/SEC     8204.1   8218.3   8232.5   8246.6   8260.8   8274.9   8289.0   8303.1

 TRANSPORT PROPERTIES (GASES ONLY)
   CONDUCTIVITY IN UNITS OF MILLIWATTS/(CM)(K)

 VISC,MILLIPOISE  0.71020  0.71053  0.71086  0.71120  0.71155  0.71191  0.71227  0.71265

  WITH EQUILIBRIUM REACTIONS

 Cp, KJ/(KG)(K)   46.5071  46.1454  45.7887  45.4370  45.0903  44.7485  44.4115  44.0793
 CONDUCTIVITY     53.9101  53.4971  53.0901  52.6889  52.2936  51.9040  51.5201  51.1418
 PRANDTL NUMBER    0.6127   0.6129   0.6131   0.6133   0.6135   0.6138   0.6140   0.6142

  WITH FROZEN REACTIONS

 Cp, KJ/(KG)(K)   20.6357  20.6354  20.6351  20.6348  20.6345  20.6343  20.6340  20.6338
 CONDUCTIVITY     21.2616  21.2791  21.2968  21.3146  21.3326  21.3507  21.3690  21.3874
 PRANDTL NUMBER    0.6893   0.6890   0.6888   0.6885   0.6883   0.6880   0.6878   0.6875

 MOLE FRACTIONS

 *e-              0.00002  0.00002  0.00002  0.00002  0.00002  0.00002  0.00002  0.00002
 *H               0.95393  0.95453  0.95513  0.95572  0.95630  0.95687  0.95743  0.95798
 *H+              0.00002  0.00002  0.00002  0.00002  0.00002  0.00002  0.00002  0.00002
 *H2              0.04603  0.04542  0.04482  0.04423  0.04365  0.04308  0.04252  0.04196

  * THERMODYNAMIC PROPERTIES FITTED TO 20000.K

 NOTE. WEIGHT FRACTION OF FUEL IN TOTAL FUELS AND OF OXIDANT IN TOTAL OXIDANTS









               THERMODYNAMIC EQUILIBRIUM PROPERTIES AT ASSIGNED

                           TEMPERATURE AND PRESSURE

 CASE =                

             REACTANT                    WT FRACTION      ENERGY      TEMP
                                          (SEE NOTE)     KJ/KG-MOL      K  
             H2                           1.0000000         0.000      0.000

 O/F=    0.00000  %FUEL=100.000000  R,EQ.RATIO= 0.000000  PHI,EQ.RATIO= 0.000000

 THERMODYNAMIC PROPERTIES

 P, BAR            18.000   18.000   18.000   20.000   20.000   20.000   20.000   20.000
 T, K             6270.00  6280.00  6290.00  6150.00  6160.00  6170.00  6180.00  6190.00
 RHO, KG/CU M    3.6242-2 3.6166-2 3.6090-2 4.1528-2 4.1433-2 4.1338-2 4.1245-2 4.1152-2
 H, KJ/KG        321135.5 321571.4 322004.1 313612.6 314112.2 314607.9 315099.6 315587.4
 U, KJ/KG        271470.0 271801.0 272129.0 265452.2 265841.3 266226.7 266608.4 266986.7
 G, KJ/KG       -620724.8-622227.3-623730.5-597664.8-599147.0-600630.0-602113.7-603598.3
 S, KJ/(KG)(K)   150.2170 150.2864 150.3553 148.1752 148.2564 148.3368 148.4164 148.4953

 M, (1/n)           1.050    1.049    1.049    1.062    1.061    1.060    1.060    1.059
 (dLV/dLP)t      -1.03662 -1.03621 -1.03579 -1.04557 -1.04506 -1.04456 -1.04406 -1.04357
 (dLV/dLT)p        1.3267   1.3224   1.3183   1.4143   1.4090   1.4038   1.3987   1.3936
 Cp, KJ/(KG)(K)   43.7518  43.4291  43.1109  50.1660  49.7634  49.3660  48.9738  48.5868
 GAMMAs            1.3928   1.3946   1.3963   1.3637   1.3653   1.3670   1.3687   1.3704
 SON VEL,M/SEC     8317.1   8331.2   8345.2   8104.0   8118.2   8132.5   8146.8   8161.0

 TRANSPORT PROPERTIES (GASES ONLY)
   CONDUCTIVITY IN UNITS OF MILLIWATTS/(CM)(K)

 VISC,MILLIPOISE  0.71302  0.71341  0.71380  0.71451  0.71476  0.71501  0.71528  0.71556

  WITH EQUILIBRIUM REACTIONS

 Cp, KJ/(KG)(K)   43.7518  43.4290  43.1109  50.1660  49.7634  49.3660  48.9738  48.5868
 CONDUCTIVITY     50.7691  50.4018  50.0400  58.6269  58.1613  57.7019  57.2488  56.8018
 PRANDTL NUMBER    0.6145   0.6147   0.6150   0.6114   0.6116   0.6117   0.6119   0.6121

  WITH FROZEN REACTIONS

 Cp, KJ/(KG)(K)   20.6336  20.6333  20.6331  20.6393  20.6389  20.6386  20.6383  20.6379
 CONDUCTIVITY     21.4060  21.4248  21.4437  21.3014  21.3172  21.3333  21.3495  21.3659
 PRANDTL NUMBER    0.6873   0.6871   0.6868   0.6923   0.6920   0.6917   0.6915   0.6912

 MOLE FRACTIONS

 *e-              0.00003  0.00003  0.00003  0.00002  0.00002  0.00002  0.00002  0.00002
 *H               0.95853  0.95907  0.95960  0.94656  0.94726  0.94796  0.94864  0.94931
 *H+              0.00003  0.00003  0.00003  0.00002  0.00002  0.00002  0.00002  0.00002
 *H2              0.04142  0.04088  0.04035  0.05340  0.05270  0.05201  0.05132  0.05065

  * THERMODYNAMIC PROPERTIES FITTED TO 20000.K

 NOTE. WEIGHT FRACTION OF FUEL IN TOTAL FUELS AND OF OXIDANT IN TOTAL OXIDANTS









               THERMODYNAMIC EQUILIBRIUM PROPERTIES AT ASSIGNED

                           TEMPERATURE AND PRESSURE

 CASE =                

             REACTANT                    WT FRACTION      ENERGY      TEMP
                                          (SEE NOTE)     KJ/KG-MOL      K  
             H2                           1.0000000         0.000      0.000

 O/F=    0.00000  %FUEL=100.000000  R,EQ.RATIO= 0.000000  PHI,EQ.RATIO= 0.000000

 THERMODYNAMIC PROPERTIES

 P, BAR            20.000   20.000   20.000   20.000   20.000   20.000   20.000   20.000
 T, K             6200.00  6210.00  6220.00  6230.00  6240.00  6250.00  6260.00  6270.00
 RHO, KG/CU M    4.1059-2 4.0968-2 4.0877-2 4.0787-2 4.0697-2 4.0608-2 4.0520-2 4.0432-2
 H, KJ/KG        316071.3 316551.5 317027.9 317500.6 317969.7 318435.2 318897.1 319355.6
 U, KJ/KG        267361.4 267732.6 268100.4 268464.8 268825.9 269183.7 269538.3 269889.6
 G, KJ/KG       -605083.6-606569.8-608056.6-609544.3-611032.7-612521.9-614011.8-615502.4
 S, KJ/(KG)(K)   148.5734 148.6508 148.7274 148.8034 148.8786 148.9531 149.0270 149.1002

 M, (1/n)           1.058    1.058    1.057    1.056    1.056    1.055    1.054    1.054
 (dLV/dLP)t      -1.04309 -1.04261 -1.04213 -1.04166 -1.04120 -1.04074 -1.04029 -1.03984
 (dLV/dLT)p        1.3886   1.3837   1.3788   1.3740   1.3692   1.3645   1.3599   1.3553
 Cp, KJ/(KG)(K)   48.2049  47.8281  47.4563  47.0895  46.7276  46.3707  46.0186  45.6713
 GAMMAs            1.3721   1.3738   1.3755   1.3772   1.3789   1.3806   1.3823   1.3840
 SON VEL,M/SEC     8175.2   8189.4   8203.6   8217.7   8231.9   8246.0   8260.1   8274.1

 TRANSPORT PROPERTIES (GASES ONLY)
   CONDUCTIVITY IN UNITS OF MILLIWATTS/(CM)(K)

 VISC,MILLIPOISE  0.71584  0.71613  0.71643  0.71673  0.71705  0.71737  0.71770  0.71803

  WITH EQUILIBRIUM REACTIONS

 Cp, KJ/(KG)(K)   48.2049  47.8281  47.4563  47.0895  46.7276  46.3707  46.0186  45.6713
 CONDUCTIVITY     56.3610  55.9262  55.4974  55.0745  54.6575  54.2463  53.8409  53.4412
 PRANDTL NUMBER    0.6122   0.6124   0.6126   0.6128   0.6130   0.6132   0.6134   0.6136

  WITH FROZEN REACTIONS

 Cp, KJ/(KG)(K)   20.6376  20.6373  20.6370  20.6368  20.6365  20.6362  20.6360  20.6358
 CONDUCTIVITY     21.3825  21.3992  21.4161  21.4331  21.4504  21.4677  21.4852  21.5029
 PRANDTL NUMBER    0.6909   0.6906   0.6904   0.6901   0.6898   0.6896   0.6893   0.6891

 MOLE FRACTIONS

 *e-              0.00002  0.00002  0.00002  0.00002  0.00002  0.00002  0.00002  0.00002
 *H               0.94997  0.95062  0.95126  0.95190  0.95252  0.95313  0.95374  0.95433
 *H+              0.00002  0.00002  0.00002  0.00002  0.00002  0.00002  0.00002  0.00002
 *H2              0.04999  0.04933  0.04869  0.04806  0.04743  0.04682  0.04621  0.04562

  * THERMODYNAMIC PROPERTIES FITTED TO 20000.K

 NOTE. WEIGHT FRACTION OF FUEL IN TOTAL FUELS AND OF OXIDANT IN TOTAL OXIDANTS









               THERMODYNAMIC EQUILIBRIUM PROPERTIES AT ASSIGNED

                           TEMPERATURE AND PRESSURE

 CASE =                

             REACTANT                    WT FRACTION      ENERGY      TEMP
                                          (SEE NOTE)     KJ/KG-MOL      K  
             H2                           1.0000000         0.000      0.000

 O/F=    0.00000  %FUEL=100.000000  R,EQ.RATIO= 0.000000  PHI,EQ.RATIO= 0.000000

 THERMODYNAMIC PROPERTIES

 P, BAR            20.000   20.000   22.500   22.500   22.500   22.500   22.500   22.500
 T, K             6280.00  6290.00  6150.00  6160.00  6170.00  6180.00  6190.00  6200.00
 RHO, KG/CU M    4.0345-2 4.0258-2 4.6982-2 4.6871-2 4.6762-2 4.6653-2 4.6545-2 4.6438-2
 H, KJ/KG        319810.6 320262.2 311162.7 311687.4 312207.9 312724.3 313236.6 313744.8
 U, KJ/KG        270237.9 270583.0 263271.7 263683.6 264091.5 264495.7 264896.1 265292.8
 G, KJ/KG       -616993.8-618485.9-592008.0-593477.0-594946.9-596417.5-597889.1-599361.4
 S, KJ/(KG)(K)   149.1727 149.2445 146.8570 146.9423 147.0267 147.1103 147.1932 147.2752

 M, (1/n)           1.053    1.053    1.068    1.067    1.066    1.065    1.065    1.064
 (dLV/dLP)t      -1.03939 -1.03895 -1.04974 -1.04921 -1.04868 -1.04815 -1.04763 -1.04712
 (dLV/dLT)p        1.3508   1.3463   1.4523   1.4467   1.4411   1.4357   1.4303   1.4249
 Cp, KJ/(KG)(K)   45.3287  44.9909  52.6868  52.2627  51.8439  51.4302  51.0216  50.6180
 GAMMAs            1.3857   1.3874   1.3550   1.3566   1.3582   1.3598   1.3614   1.3631
 SON VEL,M/SEC     8288.2   8302.2   8055.5   8069.8   8084.0   8098.3   8112.5   8126.7

 TRANSPORT PROPERTIES (GASES ONLY)
   CONDUCTIVITY IN UNITS OF MILLIWATTS/(CM)(K)

 VISC,MILLIPOISE  0.71838  0.71873  0.72114  0.72134  0.72155  0.72177  0.72199  0.72222

  WITH EQUILIBRIUM REACTIONS

 Cp, KJ/(KG)(K)   45.3287  44.9909  52.6868  52.2627  51.8439  51.4302  51.0216  50.6180
 CONDUCTIVITY     53.0471  52.6587  62.1783  61.6817  61.1914  60.7074  60.2295  59.7579
 PRANDTL NUMBER    0.6139   0.6141   0.6111   0.6112   0.6113   0.6115   0.6116   0.6118

  WITH FROZEN REACTIONS

 Cp, KJ/(KG)(K)   20.6356  20.6354  20.6420  20.6416  20.6413  20.6410  20.6406  20.6403
 CONDUCTIVITY     21.5208  21.5388  21.4323  21.4470  21.4620  21.4771  21.4924  21.5078
 PRANDTL NUMBER    0.6888   0.6886   0.6946   0.6943   0.6940   0.6937   0.6934   0.6931

 MOLE FRACTIONS

 *e-              0.00002  0.00003  0.00002  0.00002  0.00002  0.00002  0.00002  0.00002
 *H               0.95492  0.95550  0.94064  0.94141  0.94217  0.94292  0.94366  0.94438
 *H+              0.00002  0.00003  0.00002  0.00002  0.00002  0.00002  0.00002  0.00002
 *H2              0.04503  0.04445  0.05933  0.05856  0.05779  0.05704  0.05630  0.05558

  * THERMODYNAMIC PROPERTIES FITTED TO 20000.K

 NOTE. WEIGHT FRACTION OF FUEL IN TOTAL FUELS AND OF OXIDANT IN TOTAL OXIDANTS









               THERMODYNAMIC EQUILIBRIUM PROPERTIES AT ASSIGNED

                           TEMPERATURE AND PRESSURE

 CASE =                

             REACTANT                    WT FRACTION      ENERGY      TEMP
                                          (SEE NOTE)     KJ/KG-MOL      K  
             H2                           1.0000000         0.000      0.000

 O/F=    0.00000  %FUEL=100.000000  R,EQ.RATIO= 0.000000  PHI,EQ.RATIO= 0.000000

 THERMODYNAMIC PROPERTIES

 P, BAR            22.500   22.500   22.500   22.500   22.500   22.500   22.500   22.500
 T, K             6210.00  6220.00  6230.00  6240.00  6250.00  6260.00  6270.00  6280.00
 RHO, KG/CU M    4.6331-2 4.6226-2 4.6121-2 4.6017-2 4.5914-2 4.5812-2 4.5710-2 4.5609-2
 H, KJ/KG        314248.9 314749.2 315245.5 315737.9 316226.6 316711.5 317192.6 317670.1
 U, KJ/KG        265685.8 266075.1 266460.9 266843.2 267221.9 267597.3 267969.2 268337.8
 G, KJ/KG       -600834.6-602308.5-603783.3-605258.9-606735.2-608212.3-609690.2-611168.9
 S, KJ/(KG)(K)   147.3564 147.4369 147.5167 147.5956 147.6739 147.7514 147.8282 147.9043

 M, (1/n)           1.063    1.063    1.062    1.061    1.060    1.060    1.059    1.058
 (dLV/dLP)t      -1.04661 -1.04611 -1.04561 -1.04511 -1.04462 -1.04414 -1.04366 -1.04319
 (dLV/dLT)p        1.4197   1.4145   1.4093   1.4042   1.3992   1.3943   1.3894   1.3845
 Cp, KJ/(KG)(K)   50.2196  49.8261  49.4377  49.0541  48.6755  48.3018  47.9329  47.5687
 GAMMAs            1.3647   1.3663   1.3680   1.3696   1.3713   1.3729   1.3746   1.3762
 SON VEL,M/SEC     8140.9   8155.1   8169.2   8183.4   8197.5   8211.6   8225.6   8239.7

 TRANSPORT PROPERTIES (GASES ONLY)
   CONDUCTIVITY IN UNITS OF MILLIWATTS/(CM)(K)

 VISC,MILLIPOISE  0.72246  0.72271  0.72297  0.72323  0.72351  0.72379  0.72407  0.72437

  WITH EQUILIBRIUM REACTIONS

 Cp, KJ/(KG)(K)   50.2196  49.8261  49.4377  49.0541  48.6755  48.3018  47.9329  47.5687
 CONDUCTIVITY     59.2923  58.8328  58.3793  57.9318  57.4903  57.0545  56.6247  56.2005
 PRANDTL NUMBER    0.6119   0.6121   0.6122   0.6124   0.6126   0.6127   0.6129   0.6131

  WITH FROZEN REACTIONS

 Cp, KJ/(KG)(K)   20.6400  20.6397  20.6395  20.6392  20.6390  20.6387  20.6385  20.6383
 CONDUCTIVITY     21.5234  21.5392  21.5552  21.5713  21.5876  21.6041  21.6207  21.6375
 PRANDTL NUMBER    0.6928   0.6925   0.6923   0.6920   0.6917   0.6914   0.6912   0.6909

 MOLE FRACTIONS

 *e-              0.00002  0.00002  0.00002  0.00002  0.00002  0.00002  0.00002  0.00002
 *H               0.94510  0.94581  0.94650  0.94719  0.94786  0.94853  0.94919  0.94983
 *H+              0.00002  0.00002  0.00002  0.00002  0.00002  0.00002  0.00002  0.00002
 *H2              0.05486  0.05415  0.05345  0.05277  0.05209  0.05142  0.05077  0.05012

  * THERMODYNAMIC PROPERTIES FITTED TO 20000.K

 NOTE. WEIGHT FRACTION OF FUEL IN TOTAL FUELS AND OF OXIDANT IN TOTAL OXIDANTS









               THERMODYNAMIC EQUILIBRIUM PROPERTIES AT ASSIGNED

                           TEMPERATURE AND PRESSURE

 CASE =                

             REACTANT                    WT FRACTION      ENERGY      TEMP
                                          (SEE NOTE)     KJ/KG-MOL      K  
             H2                           1.0000000         0.000      0.000

 O/F=    0.00000  %FUEL=100.000000  R,EQ.RATIO= 0.000000  PHI,EQ.RATIO= 0.000000

 THERMODYNAMIC PROPERTIES

 P, BAR            22.500   25.000   25.000   25.000   25.000   25.000   25.000   25.000
 T, K             6290.00  6150.00  6160.00  6170.00  6180.00  6190.00  6200.00  6210.00
 RHO, KG/CU M    4.5509-2 5.2487-2 5.2361-2 5.2235-2 5.2111-2 5.1987-2 5.1865-2 5.1743-2
 H, KJ/KG        318144.0 308797.8 309345.8 309889.5 310428.8 310963.8 311494.5 312021.1
 U, KJ/KG        268703.1 261167.0 261600.0 262028.9 262453.9 262874.9 263292.0 263705.3
 G, KJ/KG       -612648.3-586975.7-588432.7-589890.6-591349.4-592809.0-594269.5-595730.8
 S, KJ/(KG)(K)   147.9797 145.6542 145.7433 145.8315 145.9188 146.0053 146.0910 146.1758

 M, (1/n)           1.058    1.074    1.073    1.072    1.071    1.070    1.069    1.069
 (dLV/dLP)t      -1.04272 -1.05367 -1.05311 -1.05255 -1.05200 -1.05146 -1.05092 -1.05039
 (dLV/dLT)p        1.3798   1.4879   1.4820   1.4762   1.4705   1.4648   1.4592   1.4537
 Cp, KJ/(KG)(K)   47.2094  55.0235  54.5819  54.1453  53.7138  53.2872  52.8657  52.4491
 GAMMAs            1.3779   1.3476   1.3492   1.3507   1.3523   1.3538   1.3554   1.3570
 SON VEL,M/SEC     8253.7   8011.7   8026.0   8040.3   8054.5   8068.8   8083.0   8097.2

 TRANSPORT PROPERTIES (GASES ONLY)
   CONDUCTIVITY IN UNITS OF MILLIWATTS/(CM)(K)

 VISC,MILLIPOISE  0.72467  0.72749  0.72765  0.72781  0.72798  0.72816  0.72835  0.72854

  WITH EQUILIBRIUM REACTIONS

 Cp, KJ/(KG)(K)   47.2094  55.0235  54.5819  54.1453  53.7138  53.2872  52.8657  52.4491
 CONDUCTIVITY     55.7821  65.5190  64.9958  64.4789  63.9681  63.4636  62.9651  62.4728
 PRANDTL NUMBER    0.6133   0.6110   0.6111   0.6112   0.6113   0.6114   0.6115   0.6116

  WITH FROZEN REACTIONS

 Cp, KJ/(KG)(K)   20.6380  20.6446  20.6442  20.6439  20.6436  20.6432  20.6429  20.6427
 CONDUCTIVITY     21.6544  21.5587  21.5724  21.5863  21.6003  21.6146  21.6290  21.6436
 PRANDTL NUMBER    0.6907   0.6966   0.6963   0.6960   0.6957   0.6954   0.6951   0.6948

 MOLE FRACTIONS

 *e-              0.00002  0.00002  0.00002  0.00002  0.00002  0.00002  0.00002  0.00002
 *H               0.95047  0.93485  0.93569  0.93652  0.93733  0.93813  0.93892  0.93970
 *H+              0.00002  0.00002  0.00002  0.00002  0.00002  0.00002  0.00002  0.00002
 *H2              0.04948  0.06511  0.06427  0.06345  0.06263  0.06183  0.06104  0.06026

  * THERMODYNAMIC PROPERTIES FITTED TO 20000.K

 NOTE. WEIGHT FRACTION OF FUEL IN TOTAL FUELS AND OF OXIDANT IN TOTAL OXIDANTS









               THERMODYNAMIC EQUILIBRIUM PROPERTIES AT ASSIGNED

                           TEMPERATURE AND PRESSURE

 CASE =                

             REACTANT                    WT FRACTION      ENERGY      TEMP
                                          (SEE NOTE)     KJ/KG-MOL      K  
             H2                           1.0000000         0.000      0.000

 O/F=    0.00000  %FUEL=100.000000  R,EQ.RATIO= 0.000000  PHI,EQ.RATIO= 0.000000

 THERMODYNAMIC PROPERTIES

 P, BAR            25.000   25.000   25.000   25.000   25.000   25.000   25.000   25.000
 T, K             6220.00  6230.00  6240.00  6250.00  6260.00  6270.00  6280.00  6290.00
 RHO, KG/CU M    5.1622-2 5.1503-2 5.1384-2 5.1266-2 5.1149-2 5.1033-2 5.0917-2 5.0803-2
 H, KJ/KG        312543.5 313061.8 313576.1 314086.4 314592.8 315095.2 315593.9 316088.7
 U, KJ/KG        264114.8 264520.6 264922.6 265321.0 265715.8 266107.0 266494.7 266878.9
 G, KJ/KG       -597193.0-598656.0-600119.8-601584.5-603050.0-604516.3-605983.3-607451.2
 S, KJ/(KG)(K)   146.2599 146.3432 146.4256 146.5074 146.5883 146.6685 146.7480 146.8267

 M, (1/n)           1.068    1.067    1.066    1.066    1.065    1.064    1.063    1.063
 (dLV/dLP)t      -1.04986 -1.04933 -1.04881 -1.04830 -1.04779 -1.04729 -1.04679 -1.04629
 (dLV/dLT)p        1.4482   1.4427   1.4374   1.4321   1.4269   1.4217   1.4166   1.4115
 Cp, KJ/(KG)(K)   52.0374  51.6306  51.2288  50.8318  50.4396  50.0522  49.6695  49.2916
 GAMMAs            1.3586   1.3602   1.3617   1.3633   1.3649   1.3665   1.3681   1.3697
 SON VEL,M/SEC     8111.3   8125.5   8139.6   8153.7   8167.8   8181.9   8196.0   8210.0

 TRANSPORT PROPERTIES (GASES ONLY)
   CONDUCTIVITY IN UNITS OF MILLIWATTS/(CM)(K)

 VISC,MILLIPOISE  0.72875  0.72896  0.72918  0.72940  0.72964  0.72988  0.73013  0.73039

  WITH EQUILIBRIUM REACTIONS

 Cp, KJ/(KG)(K)   52.0374  51.6306  51.2288  50.8318  50.4396  50.0522  49.6695  49.2916
 CONDUCTIVITY     61.9865  61.5063  61.0320  60.5637  60.1013  59.6448  59.1940  58.7491
 PRANDTL NUMBER    0.6118   0.6119   0.6121   0.6122   0.6123   0.6125   0.6127   0.6128

  WITH FROZEN REACTIONS

 Cp, KJ/(KG)(K)   20.6424  20.6421  20.6418  20.6416  20.6413  20.6411  20.6409  20.6407
 CONDUCTIVITY     21.6584  21.6734  21.6885  21.7038  21.7193  21.7349  21.7507  21.7667
 PRANDTL NUMBER    0.6946   0.6943   0.6940   0.6937   0.6934   0.6932   0.6929   0.6926

 MOLE FRACTIONS

 *e-              0.00002  0.00002  0.00002  0.00002  0.00002  0.00002  0.00002  0.00002
 *H               0.94047  0.94123  0.94197  0.94271  0.94343  0.94414  0.94485  0.94554
 *H+              0.00002  0.00002  0.00002  0.00002  0.00002  0.00002  0.00002  0.00002
 *H2              0.05949  0.05873  0.05799  0.05725  0.05653  0.05581  0.05511  0.05441

  * THERMODYNAMIC PROPERTIES FITTED TO 20000.K

 NOTE. WEIGHT FRACTION OF FUEL IN TOTAL FUELS AND OF OXIDANT IN TOTAL OXIDANTS









               THERMODYNAMIC EQUILIBRIUM PROPERTIES AT ASSIGNED

                           TEMPERATURE AND PRESSURE

 CASE =                

             REACTANT                    WT FRACTION      ENERGY      TEMP
                                          (SEE NOTE)     KJ/KG-MOL      K  
             H2                           1.0000000         0.000      0.000

 O/F=    0.00000  %FUEL=100.000000  R,EQ.RATIO= 0.000000  PHI,EQ.RATIO= 0.000000

 THERMODYNAMIC PROPERTIES

 P, BAR            28.000   28.000   28.000   28.000   28.000   28.000   28.000   28.000
 T, K             6150.00  6160.00  6170.00  6180.00  6190.00  6200.00  6210.00  6220.00
 RHO, KG/CU M    5.9159-2 5.9012-2 5.8867-2 5.8723-2 5.8580-2 5.8439-2 5.8298-2 5.8158-2
 H, KJ/KG        306065.4 306639.2 307208.4 307773.1 308333.4 308889.2 309440.6 309987.8
 U, KJ/KG        258735.2 259191.6 259643.7 260091.8 260535.7 260975.6 261411.5 261843.4
 G, KJ/KG       -581594.6-583038.4-584483.2-585928.9-587375.4-588822.9-590271.3-591720.5
 S, KJ/(KG)(K)   144.3350 144.4282 144.5205 144.6120 144.7026 144.7923 144.8811 144.9692

 M, (1/n)           1.080    1.079    1.079    1.078    1.077    1.076    1.075    1.074
 (dLV/dLP)t      -1.05807 -1.05749 -1.05691 -1.05634 -1.05577 -1.05520 -1.05465 -1.05409
 (dLV/dLT)p        1.5279   1.5218   1.5157   1.5097   1.5037   1.4978   1.4920   1.4862
 Cp, KJ/(KG)(K)   57.6066  57.1482  56.6947  56.2460  55.8020  55.3629  54.9285  54.4990
 GAMMAs            1.3402   1.3416   1.3431   1.3446   1.3461   1.3476   1.3491   1.3506
 SON VEL,M/SEC     7964.3   7978.6   7992.8   8007.1   8021.3   8035.5   8049.7   8063.9

 TRANSPORT PROPERTIES (GASES ONLY)
   CONDUCTIVITY IN UNITS OF MILLIWATTS/(CM)(K)

 VISC,MILLIPOISE  0.73475  0.73486  0.73498  0.73510  0.73523  0.73537  0.73552  0.73567

  WITH EQUILIBRIUM REACTIONS

 Cp, KJ/(KG)(K)   57.6066  57.1482  56.6947  56.2460  55.8020  55.3629  54.9285  54.4990
 CONDUCTIVITY     69.2720  68.7219  68.1779  67.6400  67.1081  66.5823  66.0625  65.5487
 PRANDTL NUMBER    0.6110   0.6111   0.6112   0.6113   0.6114   0.6115   0.6116   0.6117

  WITH FROZEN REACTIONS

 Cp, KJ/(KG)(K)   20.6475  20.6472  20.6469  20.6466  20.6463  20.6460  20.6457  20.6454
 CONDUCTIVITY     21.7046  21.7172  21.7300  21.7429  21.7560  21.7693  21.7828  21.7965
 PRANDTL NUMBER    0.6990   0.6987   0.6983   0.6980   0.6977   0.6974   0.6971   0.6968

 MOLE FRACTIONS

 *e-              0.00002  0.00002  0.00002  0.00002  0.00002  0.00002  0.00002  0.00002
 *H               0.92809  0.92901  0.92991  0.93079  0.93167  0.93253  0.93338  0.93422
 *H+              0.00002  0.00002  0.00002  0.00002  0.00002  0.00002  0.00002  0.00002
 *H2              0.07188  0.07096  0.07006  0.06917  0.06830  0.06744  0.06659  0.06575

  * THERMODYNAMIC PROPERTIES FITTED TO 20000.K

 NOTE. WEIGHT FRACTION OF FUEL IN TOTAL FUELS AND OF OXIDANT IN TOTAL OXIDANTS









               THERMODYNAMIC EQUILIBRIUM PROPERTIES AT ASSIGNED

                           TEMPERATURE AND PRESSURE

 CASE =                

             REACTANT                    WT FRACTION      ENERGY      TEMP
                                          (SEE NOTE)     KJ/KG-MOL      K  
             H2                           1.0000000         0.000      0.000

 O/F=    0.00000  %FUEL=100.000000  R,EQ.RATIO= 0.000000  PHI,EQ.RATIO= 0.000000

 THERMODYNAMIC PROPERTIES

 P, BAR            28.000   28.000   28.000   28.000   28.000   28.000   28.000   31.000
 T, K             6230.00  6240.00  6250.00  6260.00  6270.00  6280.00  6290.00  6150.00
 RHO, KG/CU M    5.8020-2 5.7883-2 5.7746-2 5.7611-2 5.7477-2 5.7344-2 5.7212-2 6.5899-2
 H, KJ/KG        310530.6 311069.3 311603.7 312134.1 312660.3 313182.5 313700.7 303441.0
 U, KJ/KG        262271.4 262695.5 263115.8 263532.4 263945.1 264354.2 264759.6 256399.4
 G, KJ/KG       -593170.7-594621.7-596073.5-597526.2-598979.8-600434.2-601889.4-576791.8
 S, KJ/(KG)(K)   145.0564 145.1428 145.2284 145.3131 145.3971 145.4804 145.5628 143.1273

 M, (1/n)           1.073    1.073    1.072    1.071    1.070    1.069    1.069    1.087
 (dLV/dLP)t      -1.05354 -1.05300 -1.05246 -1.05192 -1.05139 -1.05087 -1.05035 -1.06217
 (dLV/dLT)p        1.4805   1.4748   1.4693   1.4637   1.4583   1.4529   1.4475   1.5652
 Cp, KJ/(KG)(K)   54.0742  53.6541  53.2388  52.8282  52.4222  52.0210  51.6244  59.9712
 GAMMAs            1.3522   1.3537   1.3552   1.3568   1.3583   1.3598   1.3614   1.3338
 SON VEL,M/SEC     8078.0   8092.2   8106.3   8120.4   8134.5   8148.5   8162.6   7921.2

 TRANSPORT PROPERTIES (GASES ONLY)
   CONDUCTIVITY IN UNITS OF MILLIWATTS/(CM)(K)

 VISC,MILLIPOISE  0.73584  0.73601  0.73619  0.73637  0.73657  0.73677  0.73698  0.74165

  WITH EQUILIBRIUM REACTIONS

 Cp, KJ/(KG)(K)   54.0742  53.6541  53.2388  52.8282  52.4222  52.0210  51.6244  59.9712
 CONDUCTIVITY     65.0408  64.5388  64.0428  63.5526  63.0682  62.5897  62.1169  72.7687
 PRANDTL NUMBER    0.6118   0.6119   0.6120   0.6121   0.6122   0.6124   0.6125   0.6112

  WITH FROZEN REACTIONS

 Cp, KJ/(KG)(K)   20.6451  20.6449  20.6446  20.6444  20.6442  20.6439  20.6437  20.6504
 CONDUCTIVITY     21.8103  21.8244  21.8386  21.8529  21.8675  21.8822  21.8971  21.8448
 PRANDTL NUMBER    0.6965   0.6962   0.6959   0.6956   0.6954   0.6951   0.6948   0.7011

 MOLE FRACTIONS

 *e-              0.00002  0.00002  0.00002  0.00002  0.00002  0.00002  0.00002  0.00001
 *H               0.93504  0.93586  0.93666  0.93745  0.93823  0.93900  0.93976  0.92152
 *H+              0.00002  0.00002  0.00002  0.00002  0.00002  0.00002  0.00002  0.00001
 *H2              0.06492  0.06411  0.06330  0.06251  0.06173  0.06096  0.06020  0.07845

  * THERMODYNAMIC PROPERTIES FITTED TO 20000.K

 NOTE. WEIGHT FRACTION OF FUEL IN TOTAL FUELS AND OF OXIDANT IN TOTAL OXIDANTS









               THERMODYNAMIC EQUILIBRIUM PROPERTIES AT ASSIGNED

                           TEMPERATURE AND PRESSURE

 CASE =                

             REACTANT                    WT FRACTION      ENERGY      TEMP
                                          (SEE NOTE)     KJ/KG-MOL      K  
             H2                           1.0000000         0.000      0.000

 O/F=    0.00000  %FUEL=100.000000  R,EQ.RATIO= 0.000000  PHI,EQ.RATIO= 0.000000

 THERMODYNAMIC PROPERTIES

 P, BAR            31.000   31.000   31.000   31.000   31.000   31.000   31.000   31.000
 T, K             6160.00  6170.00  6180.00  6190.00  6200.00  6210.00  6220.00  6230.00
 RHO, KG/CU M    6.5732-2 6.5566-2 6.5402-2 6.5239-2 6.5078-2 6.4917-2 6.4758-2 6.4600-2
 H, KJ/KG        304038.3 304631.0 305219.0 305802.4 306381.3 306955.7 307525.6 308091.1
 U, KJ/KG        256877.2 257350.7 257820.0 258285.0 258745.8 259202.5 259655.1 260103.7
 G, KJ/KG       -578223.5-579656.3-581089.9-582524.6-583960.1-585396.6-586834.1-588272.4
 S, KJ/(KG)(K)   143.2243 143.3205 143.4157 143.5100 143.6035 143.6960 143.7877 143.8786

 M, (1/n)           1.086    1.085    1.084    1.083    1.082    1.081    1.080    1.079
 (dLV/dLP)t      -1.06157 -1.06097 -1.06038 -1.05979 -1.05921 -1.05863 -1.05805 -1.05748
 (dLV/dLT)p        1.5588   1.5525   1.5462   1.5400   1.5339   1.5278   1.5218   1.5159
 Cp, KJ/(KG)(K)   59.5002  59.0336  58.5716  58.1142  57.6614  57.2131  56.7693  56.3301
 GAMMAs            1.3353   1.3367   1.3381   1.3396   1.3410   1.3425   1.3439   1.3454
 SON VEL,M/SEC     7935.5   7949.8   7964.0   7978.3   7992.5   8006.7   8020.9   8035.0

 TRANSPORT PROPERTIES (GASES ONLY)
   CONDUCTIVITY IN UNITS OF MILLIWATTS/(CM)(K)

 VISC,MILLIPOISE  0.74172  0.74179  0.74187  0.74196  0.74206  0.74216  0.74228  0.74240

  WITH EQUILIBRIUM REACTIONS

 Cp, KJ/(KG)(K)   59.5002  59.0336  58.5716  58.1142  57.6614  57.2131  56.7693  56.3301
 CONDUCTIVITY     72.1966  71.6303  71.0698  70.5153  69.9666  69.4237  68.8867  68.3555
 PRANDTL NUMBER    0.6113   0.6113   0.6114   0.6115   0.6116   0.6116   0.6117   0.6118

  WITH FROZEN REACTIONS

 Cp, KJ/(KG)(K)   20.6501  20.6498  20.6495  20.6492  20.6489  20.6486  20.6483  20.6481
 CONDUCTIVITY     21.8563  21.8681  21.8800  21.8921  21.9044  21.9168  21.9295  21.9423
 PRANDTL NUMBER    0.7008   0.7005   0.7002   0.6998   0.6995   0.6992   0.6989   0.6986

 MOLE FRACTIONS

 *e-              0.00001  0.00002  0.00002  0.00002  0.00002  0.00002  0.00002  0.00002
 *H               0.92250  0.92347  0.92443  0.92537  0.92630  0.92722  0.92812  0.92901
 *H+              0.00001  0.00002  0.00002  0.00002  0.00002  0.00002  0.00002  0.00002
 *H2              0.07747  0.07650  0.07554  0.07460  0.07367  0.07275  0.07184  0.07095

  * THERMODYNAMIC PROPERTIES FITTED TO 20000.K

 NOTE. WEIGHT FRACTION OF FUEL IN TOTAL FUELS AND OF OXIDANT IN TOTAL OXIDANTS









               THERMODYNAMIC EQUILIBRIUM PROPERTIES AT ASSIGNED

                           TEMPERATURE AND PRESSURE

 CASE =                

             REACTANT                    WT FRACTION      ENERGY      TEMP
                                          (SEE NOTE)     KJ/KG-MOL      K  
             H2                           1.0000000         0.000      0.000

 O/F=    0.00000  %FUEL=100.000000  R,EQ.RATIO= 0.000000  PHI,EQ.RATIO= 0.000000

 THERMODYNAMIC PROPERTIES

 P, BAR            31.000   31.000   31.000   31.000   31.000   31.000   35.000   35.000
 T, K             6240.00  6250.00  6260.00  6270.00  6280.00  6290.00  6150.00  6160.00
 RHO, KG/CU M    6.4444-2 6.4288-2 6.4134-2 6.3981-2 6.3830-2 6.3679-2 7.4989-2 7.4793-2
 H, KJ/KG        308652.2 309209.0 309761.5 310309.8 310853.9 311393.9 300097.5 300723.3
 U, KJ/KG        260548.2 260988.8 261425.5 261858.2 262287.2 262712.3 253423.8 253927.5
 G, KJ/KG       -589711.6-591151.8-592592.8-594034.7-595477.4-596921.1-571104.8-572521.9
 S, KJ/(KG)(K)   143.9686 144.0577 144.1461 144.2336 144.3203 144.4062 141.6589 141.7606

 M, (1/n)           1.079    1.078    1.077    1.076    1.075    1.074    1.096    1.094
 (dLV/dLP)t      -1.05692 -1.05636 -1.05580 -1.05525 -1.05470 -1.05416 -1.06721 -1.06659
 (dLV/dLT)p        1.5100   1.5041   1.4984   1.4926   1.4870   1.4814   1.6109   1.6043
 Cp, KJ/(KG)(K)   55.8955  55.4654  55.0399  54.6189  54.2024  53.7905  62.8205  62.3377
 GAMMAs            1.3469   1.3483   1.3498   1.3513   1.3528   1.3543   1.3268   1.3281
 SON VEL,M/SEC     8049.2   8063.3   8077.4   8091.5   8105.5   8119.6   7869.3   7883.6

 TRANSPORT PROPERTIES (GASES ONLY)
   CONDUCTIVITY IN UNITS OF MILLIWATTS/(CM)(K)

 VISC,MILLIPOISE  0.74253  0.74266  0.74281  0.74296  0.74312  0.74329  0.75033  0.75035

  WITH EQUILIBRIUM REACTIONS

 Cp, KJ/(KG)(K)   55.8955  55.4654  55.0399  54.6189  54.2024  53.7905  62.8205  62.3377
 CONDUCTIVITY     67.8301  67.3105  66.7967  66.2885  65.7862  65.2895  77.0698  76.4746
 PRANDTL NUMBER    0.6119   0.6120   0.6121   0.6122   0.6123   0.6124   0.6116   0.6116

  WITH FROZEN REACTIONS

 Cp, KJ/(KG)(K)   20.6478  20.6476  20.6473  20.6471  20.6469  20.6466  20.6541  20.6538
 CONDUCTIVITY     21.9553  21.9685  21.9819  21.9955  22.0092  22.0231  22.0231  22.0335
 PRANDTL NUMBER    0.6983   0.6980   0.6977   0.6974   0.6971   0.6968   0.7037   0.7034

 MOLE FRACTIONS

 *e-              0.00002  0.00002  0.00002  0.00002  0.00002  0.00002  0.00001  0.00001
 *H               0.92989  0.93076  0.93161  0.93246  0.93329  0.93411  0.91302  0.91409
 *H+              0.00002  0.00002  0.00002  0.00002  0.00002  0.00002  0.00001  0.00001
 *H2              0.07007  0.06920  0.06835  0.06750  0.06667  0.06585  0.08695  0.08588

  * THERMODYNAMIC PROPERTIES FITTED TO 20000.K

 NOTE. WEIGHT FRACTION OF FUEL IN TOTAL FUELS AND OF OXIDANT IN TOTAL OXIDANTS









               THERMODYNAMIC EQUILIBRIUM PROPERTIES AT ASSIGNED

                           TEMPERATURE AND PRESSURE

 CASE =                

             REACTANT                    WT FRACTION      ENERGY      TEMP
                                          (SEE NOTE)     KJ/KG-MOL      K  
             H2                           1.0000000         0.000      0.000

 O/F=    0.00000  %FUEL=100.000000  R,EQ.RATIO= 0.000000  PHI,EQ.RATIO= 0.000000

 THERMODYNAMIC PROPERTIES

 P, BAR            35.000   35.000   35.000   35.000   35.000   35.000   35.000   35.000
 T, K             6170.00  6180.00  6190.00  6200.00  6210.00  6220.00  6230.00  6240.00
 RHO, KG/CU M    7.4599-2 7.4407-2 7.4216-2 7.4027-2 7.3839-2 7.3653-2 7.3468-2 7.3285-2
 H, KJ/KG        301344.3 301960.5 302572.0 303178.8 303781.0 304378.6 304971.6 305560.1
 U, KJ/KG        254426.8 254921.7 255412.3 255898.5 256380.5 256858.3 257331.8 257801.3
 G, KJ/KG       -573940.0-575359.1-576779.3-578200.3-579622.4-581045.4-582469.4-583894.4
 S, KJ/(KG)(K)   141.8613 141.9611 142.0600 142.1579 142.2550 142.3511 142.4464 142.5408

 M, (1/n)           1.093    1.092    1.091    1.090    1.089    1.088    1.087    1.086
 (dLV/dLP)t      -1.06597 -1.06536 -1.06475 -1.06415 -1.06355 -1.06295 -1.06236 -1.06178
 (dLV/dLT)p        1.5977   1.5912   1.5848   1.5784   1.5721   1.5658   1.5596   1.5535
 Cp, KJ/(KG)(K)   61.8591  61.3845  60.9142  60.4480  59.9861  59.5284  59.0748  58.6256
 GAMMAs            1.3295   1.3309   1.3322   1.3336   1.3350   1.3364   1.3378   1.3392
 SON VEL,M/SEC     7897.9   7912.2   7926.4   7940.6   7954.8   7969.0   7983.2   7997.3

 TRANSPORT PROPERTIES (GASES ONLY)
   CONDUCTIVITY IN UNITS OF MILLIWATTS/(CM)(K)

 VISC,MILLIPOISE  0.75037  0.75041  0.75045  0.75050  0.75056  0.75062  0.75070  0.75078

  WITH EQUILIBRIUM REACTIONS

 Cp, KJ/(KG)(K)   61.8591  61.3845  60.9142  60.4480  59.9861  59.5284  59.0748  58.6256
 CONDUCTIVITY     75.8848  75.3006  74.7220  74.1488  73.5813  73.0192  72.4627  71.9118
 PRANDTL NUMBER    0.6117   0.6117   0.6118   0.6118   0.6119   0.6119   0.6120   0.6121

  WITH FROZEN REACTIONS

 Cp, KJ/(KG)(K)   20.6535  20.6532  20.6529  20.6526  20.6524  20.6521  20.6518  20.6516
 CONDUCTIVITY     22.0440  22.0547  22.0656  22.0767  22.0879  22.0994  22.1110  22.1228
 PRANDTL NUMBER    0.7030   0.7027   0.7024   0.7021   0.7018   0.7015   0.7012   0.7008

 MOLE FRACTIONS

 *e-              0.00001  0.00001  0.00002  0.00002  0.00002  0.00002  0.00002  0.00002
 *H               0.91515  0.91619  0.91722  0.91824  0.91924  0.92023  0.92120  0.92216
 *H+              0.00001  0.00001  0.00001  0.00002  0.00002  0.00002  0.00002  0.00002
 *H2              0.08482  0.08378  0.08275  0.08173  0.08073  0.07974  0.07877  0.07780

  * THERMODYNAMIC PROPERTIES FITTED TO 20000.K

 NOTE. WEIGHT FRACTION OF FUEL IN TOTAL FUELS AND OF OXIDANT IN TOTAL OXIDANTS









               THERMODYNAMIC EQUILIBRIUM PROPERTIES AT ASSIGNED

                           TEMPERATURE AND PRESSURE

 CASE =                

             REACTANT                    WT FRACTION      ENERGY      TEMP
                                          (SEE NOTE)     KJ/KG-MOL      K  
             H2                           1.0000000         0.000      0.000

 O/F=    0.00000  %FUEL=100.000000  R,EQ.RATIO= 0.000000  PHI,EQ.RATIO= 0.000000

 THERMODYNAMIC PROPERTIES

 P, BAR            35.000   35.000   35.000   35.000   35.000   39.000   39.000   39.000
 T, K             6250.00  6260.00  6270.00  6280.00  6290.00  6150.00  6160.00  6170.00
 RHO, KG/CU M    7.3103-2 7.2923-2 7.2744-2 7.2567-2 7.2391-2 8.4189-2 8.3964-2 8.3741-2
 H, KJ/KG        306144.1 306723.7 307298.9 307869.8 308436.3 296918.9 297570.1 298216.4
 U, KJ/KG        258266.6 258727.8 259185.0 259638.3 260087.6 250594.8 251121.7 251644.1
 G, KJ/KG       -585320.2-586747.0-588174.8-589603.4-591033.0-566072.8-567476.6-568881.4
 S, KJ/(KG)(K)   142.6343 142.7270 142.8188 142.9097 142.9999 140.3239 140.4297 140.5345

 M, (1/n)           1.085    1.084    1.084    1.083    1.082    1.104    1.103    1.102
 (dLV/dLP)t      -1.06119 -1.06062 -1.06004 -1.05947 -1.05891 -1.07180 -1.07117 -1.07054
 (dLV/dLT)p        1.5474   1.5413   1.5353   1.5294   1.5235   1.6526   1.6459   1.6391
 Cp, KJ/(KG)(K)   58.1806  57.7398  57.3033  56.8711  56.4431  65.3624  64.8728  64.3869
 GAMMAs            1.3406   1.3420   1.3434   1.3448   1.3463   1.3209   1.3222   1.3235
 SON VEL,M/SEC     8011.5   8025.6   8039.7   8053.8   8067.8   7822.4   7836.7   7851.0

 TRANSPORT PROPERTIES (GASES ONLY)
   CONDUCTIVITY IN UNITS OF MILLIWATTS/(CM)(K)

 VISC,MILLIPOISE  0.75086  0.75096  0.75107  0.75118  0.75130  0.75846  0.75845  0.75843

  WITH EQUILIBRIUM REACTIONS

 Cp, KJ/(KG)(K)   58.1806  57.7398  57.3033  56.8711  56.4431  65.3624  64.8728  64.3869
 CONDUCTIVITY     71.3664  70.8266  70.2923  69.7635  69.2403  80.9993  80.3872  79.7801
 PRANDTL NUMBER    0.6121   0.6122   0.6123   0.6124   0.6124   0.6120   0.6121   0.6121

  WITH FROZEN REACTIONS

 Cp, KJ/(KG)(K)   20.6513  20.6511  20.6509  20.6506  20.6504  20.6576  20.6573  20.6570
 CONDUCTIVITY     22.1348  22.1470  22.1593  22.1718  22.1845  22.1925  22.2018  22.2113
 PRANDTL NUMBER    0.7005   0.7002   0.6999   0.6996   0.6993   0.7060   0.7057   0.7054

 MOLE FRACTIONS

 *e-              0.00002  0.00002  0.00002  0.00002  0.00002  0.00001  0.00001  0.00001
 *H               0.92311  0.92405  0.92497  0.92588  0.92678  0.90482  0.90597  0.90711
 *H+              0.00002  0.00002  0.00002  0.00002  0.00002  0.00001  0.00001  0.00001
 *H2              0.07685  0.07592  0.07499  0.07408  0.07318  0.09515  0.09400  0.09286

  * THERMODYNAMIC PROPERTIES FITTED TO 20000.K

 NOTE. WEIGHT FRACTION OF FUEL IN TOTAL FUELS AND OF OXIDANT IN TOTAL OXIDANTS









               THERMODYNAMIC EQUILIBRIUM PROPERTIES AT ASSIGNED

                           TEMPERATURE AND PRESSURE

 CASE =                

             REACTANT                    WT FRACTION      ENERGY      TEMP
                                          (SEE NOTE)     KJ/KG-MOL      K  
             H2                           1.0000000         0.000      0.000

 O/F=    0.00000  %FUEL=100.000000  R,EQ.RATIO= 0.000000  PHI,EQ.RATIO= 0.000000

 THERMODYNAMIC PROPERTIES

 P, BAR            39.000   39.000   39.000   39.000   39.000   39.000   39.000   39.000
 T, K             6180.00  6190.00  6200.00  6210.00  6220.00  6230.00  6240.00  6250.00
 RHO, KG/CU M    8.3519-2 8.3300-2 8.3082-2 8.2866-2 8.2651-2 8.2439-2 8.2228-2 8.2019-2
 H, KJ/KG        298857.8 299494.5 300126.3 300753.5 301376.0 301993.8 302607.0 303215.6
 U, KJ/KG        252162.0 252675.5 253184.6 253689.3 254189.8 254685.9 255177.8 255665.5
 G, KJ/KG       -570287.3-571694.2-573102.1-574511.0-575921.0-577331.9-578743.9-580156.8
 S, KJ/(KG)(K)   140.6384 140.7413 140.8433 140.9444 141.0445 141.1438 141.2421 141.3396

 M, (1/n)           1.100    1.099    1.098    1.097    1.096    1.095    1.094    1.093
 (dLV/dLP)t      -1.06992 -1.06930 -1.06868 -1.06807 -1.06746 -1.06685 -1.06625 -1.06565
 (dLV/dLT)p        1.6324   1.6258   1.6192   1.6127   1.6063   1.5998   1.5935   1.5872
 Cp, KJ/(KG)(K)   63.9047  63.4262  62.9515  62.4806  62.0135  61.5502  61.0909  60.6354
 GAMMAs            1.3248   1.3261   1.3274   1.3288   1.3301   1.3314   1.3328   1.3341
 SON VEL,M/SEC     7865.3   7879.6   7893.8   7908.0   7922.2   7936.4   7950.6   7964.7

 TRANSPORT PROPERTIES (GASES ONLY)
   CONDUCTIVITY IN UNITS OF MILLIWATTS/(CM)(K)

 VISC,MILLIPOISE  0.75843  0.75843  0.75844  0.75846  0.75848  0.75851  0.75855  0.75860

  WITH EQUILIBRIUM REACTIONS

 Cp, KJ/(KG)(K)   63.9047  63.4262  62.9515  62.4806  62.0135  61.5502  61.0909  60.6354
 CONDUCTIVITY     79.1781  78.5813  77.9896  77.4031  76.8218  76.2457  75.6749  75.1093
 PRANDTL NUMBER    0.6121   0.6122   0.6122   0.6122   0.6123   0.6123   0.6124   0.6124

  WITH FROZEN REACTIONS

 Cp, KJ/(KG)(K)   20.6567  20.6565  20.6562  20.6559  20.6557  20.6554  20.6552  20.6550
 CONDUCTIVITY     22.2209  22.2307  22.2408  22.2509  22.2613  22.2719  22.2826  22.2935
 PRANDTL NUMBER    0.7050   0.7047   0.7044   0.7041   0.7038   0.7035   0.7032   0.7028

 MOLE FRACTIONS

 *e-              0.00001  0.00001  0.00001  0.00001  0.00002  0.00002  0.00002  0.00002
 *H               0.90824  0.90934  0.91044  0.91152  0.91258  0.91364  0.91467  0.91570
 *H+              0.00001  0.00001  0.00001  0.00001  0.00001  0.00002  0.00002  0.00002
 *H2              0.09174  0.09063  0.08953  0.08845  0.08738  0.08633  0.08529  0.08427

  * THERMODYNAMIC PROPERTIES FITTED TO 20000.K

 NOTE. WEIGHT FRACTION OF FUEL IN TOTAL FUELS AND OF OXIDANT IN TOTAL OXIDANTS









               THERMODYNAMIC EQUILIBRIUM PROPERTIES AT ASSIGNED

                           TEMPERATURE AND PRESSURE

 CASE =                

             REACTANT                    WT FRACTION      ENERGY      TEMP
                                          (SEE NOTE)     KJ/KG-MOL      K  
             H2                           1.0000000         0.000      0.000

 O/F=    0.00000  %FUEL=100.000000  R,EQ.RATIO= 0.000000  PHI,EQ.RATIO= 0.000000

 THERMODYNAMIC PROPERTIES

 P, BAR            39.000   39.000   39.000   39.000   44.000   44.000   44.000   44.000
 T, K             6260.00  6270.00  6280.00  6290.00  6150.00  6160.00  6170.00  6180.00
 RHO, KG/CU M    8.1811-2 8.1605-2 8.1401-2 8.1199-2 9.5839-2 9.5575-2 9.5314-2 9.5054-2
 H, KJ/KG        303819.7 304419.3 305014.4 305605.2 293157.4 293836.5 294510.8 295180.2
 U, KJ/KG        256149.0 256628.4 257103.7 257574.9 247247.1 247799.6 248347.5 248890.9
 G, KJ/KG       -581570.7-582985.5-584401.3-585818.0-560509.6-561898.2-563287.9-564678.7
 S, KJ/(KG)(K)   141.4362 141.5319 141.6267 141.7207 138.8076 138.9180 139.0273 139.1357

 M, (1/n)           1.092    1.091    1.090    1.089    1.114    1.113    1.111    1.110
 (dLV/dLP)t      -1.06505 -1.06446 -1.06388 -1.06329 -1.07699 -1.07635 -1.07571 -1.07508
 (dLV/dLT)p        1.5809   1.5747   1.5686   1.5625   1.6998   1.6929   1.6860   1.6792
 Cp, KJ/(KG)(K)   60.1839  59.7364  59.2927  58.8531  68.1638  67.6712  67.1815  66.6950
 GAMMAs            1.3355   1.3368   1.3382   1.3395   1.3148   1.3160   1.3173   1.3185
 SON VEL,M/SEC     7978.8   7993.0   8007.0   8021.1   7769.4   7783.7   7798.1   7812.4

 TRANSPORT PROPERTIES (GASES ONLY)
   CONDUCTIVITY IN UNITS OF MILLIWATTS/(CM)(K)

 VISC,MILLIPOISE  0.75866  0.75872  0.75879  0.75887  0.76794  0.76788  0.76783  0.76779

  WITH EQUILIBRIUM REACTIONS

 Cp, KJ/(KG)(K)   60.1839  59.7364  59.2927  58.8531  68.1638  67.6712  67.1815  66.6950
 CONDUCTIVITY     74.5489  73.9938  73.4440  72.8994  85.4482  84.8220  84.2002  83.5830
 PRANDTL NUMBER    0.6125   0.6125   0.6126   0.6126   0.6126   0.6126   0.6126   0.6127

  WITH FROZEN REACTIONS

 Cp, KJ/(KG)(K)   20.6547  20.6545  20.6543  20.6540  20.6617  20.6614  20.6612  20.6609
 CONDUCTIVITY     22.3046  22.3159  22.3273  22.3390  22.3926  22.4008  22.4091  22.4176
 PRANDTL NUMBER    0.7025   0.7022   0.7019   0.7016   0.7086   0.7083   0.7079   0.7076

 MOLE FRACTIONS

 *e-              0.00002  0.00002  0.00002  0.00002  0.00001  0.00001  0.00001  0.00001
 *H               0.91671  0.91771  0.91869  0.91966  0.89495  0.89620  0.89743  0.89865
 *H+              0.00002  0.00002  0.00002  0.00002  0.00001  0.00001  0.00001  0.00001
 *H2              0.08326  0.08226  0.08127  0.08030  0.10502  0.10378  0.10254  0.10132

  * THERMODYNAMIC PROPERTIES FITTED TO 20000.K

 NOTE. WEIGHT FRACTION OF FUEL IN TOTAL FUELS AND OF OXIDANT IN TOTAL OXIDANTS









               THERMODYNAMIC EQUILIBRIUM PROPERTIES AT ASSIGNED

                           TEMPERATURE AND PRESSURE

 CASE =                

             REACTANT                    WT FRACTION      ENERGY      TEMP
                                          (SEE NOTE)     KJ/KG-MOL      K  
             H2                           1.0000000         0.000      0.000

 O/F=    0.00000  %FUEL=100.000000  R,EQ.RATIO= 0.000000  PHI,EQ.RATIO= 0.000000

 THERMODYNAMIC PROPERTIES

 P, BAR            44.000   44.000   44.000   44.000   44.000   44.000   44.000   44.000
 T, K             6190.00  6200.00  6210.00  6220.00  6230.00  6240.00  6250.00  6260.00
 RHO, KG/CU M    9.4797-2 9.4542-2 9.4289-2 9.4038-2 9.3790-2 9.3543-2 9.3298-2 9.3055-2
 H, KJ/KG        295844.7 296504.4 297159.3 297809.5 298455.0 299095.8 299731.9 300363.4
 U, KJ/KG        249429.9 249964.4 250494.4 251020.1 251541.5 252058.5 252571.3 253079.8
 G, KJ/KG       -566070.6-567463.6-568857.6-570252.7-571648.8-573046.0-574444.1-575843.3
 S, KJ/(KG)(K)   139.2432 139.3497 139.4552 139.5598 139.6635 139.7663 139.8682 139.9691

 M, (1/n)           1.109    1.108    1.106    1.105    1.104    1.103    1.102    1.101
 (dLV/dLP)t      -1.07445 -1.07383 -1.07320 -1.07258 -1.07197 -1.07135 -1.07074 -1.07013
 (dLV/dLT)p        1.6724   1.6656   1.6590   1.6523   1.6457   1.6392   1.6327   1.6263
 Cp, KJ/(KG)(K)   66.2117  65.7316  65.2548  64.7813  64.3111  63.8443  63.3810  62.9211
 GAMMAs            1.3198   1.3210   1.3223   1.3235   1.3248   1.3261   1.3273   1.3286
 SON VEL,M/SEC     7826.6   7840.9   7855.2   7869.4   7883.6   7897.8   7911.9   7926.1

 TRANSPORT PROPERTIES (GASES ONLY)
   CONDUCTIVITY IN UNITS OF MILLIWATTS/(CM)(K)

 VISC,MILLIPOISE  0.76775  0.76772  0.76770  0.76768  0.76768  0.76767  0.76768  0.76769

  WITH EQUILIBRIUM REACTIONS

 Cp, KJ/(KG)(K)   66.2117  65.7316  65.2548  64.7813  64.3111  63.8443  63.3810  62.9211
 CONDUCTIVITY     82.9704  82.3624  81.7590  81.1603  80.5664  79.9773  79.3929  78.8133
 PRANDTL NUMBER    0.6127   0.6127   0.6127   0.6128   0.6128   0.6128   0.6129   0.6129

  WITH FROZEN REACTIONS

 Cp, KJ/(KG)(K)   20.6607  20.6604  20.6602  20.6600  20.6597  20.6595  20.6593  20.6590
 CONDUCTIVITY     22.4263  22.4352  22.4442  22.4534  22.4628  22.4724  22.4821  22.4921
 PRANDTL NUMBER    0.7073   0.7070   0.7067   0.7064   0.7061   0.7057   0.7054   0.7051

 MOLE FRACTIONS

 *e-              0.00001  0.00001  0.00001  0.00001  0.00001  0.00001  0.00002  0.00002
 *H               0.89985  0.90104  0.90221  0.90336  0.90451  0.90563  0.90675  0.90785
 *H+              0.00001  0.00001  0.00001  0.00001  0.00001  0.00001  0.00002  0.00002
 *H2              0.10012  0.09893  0.09776  0.09661  0.09546  0.09434  0.09322  0.09212

  * THERMODYNAMIC PROPERTIES FITTED TO 20000.K

 NOTE. WEIGHT FRACTION OF FUEL IN TOTAL FUELS AND OF OXIDANT IN TOTAL OXIDANTS









               THERMODYNAMIC EQUILIBRIUM PROPERTIES AT ASSIGNED

                           TEMPERATURE AND PRESSURE

 CASE =                

             REACTANT                    WT FRACTION      ENERGY      TEMP
                                          (SEE NOTE)     KJ/KG-MOL      K  
             H2                           1.0000000         0.000      0.000

 O/F=    0.00000  %FUEL=100.000000  R,EQ.RATIO= 0.000000  PHI,EQ.RATIO= 0.000000

 THERMODYNAMIC PROPERTIES

 P, BAR            44.000   44.000   44.000   49.000   49.000   49.000   49.000   49.000
 T, K             6270.00  6280.00  6290.00  6150.00  6160.00  6170.00  6180.00  6190.00
 RHO, KG/CU M    9.2815-2 9.2576-2 9.2339-2 1.0764-1 1.0734-1 1.0704-1 1.0674-1 1.0645-1
 H, KJ/KG        300990.3 301612.7 302230.6 289610.3 290313.9 291012.6 291706.4 292395.3
 U, KJ/KG        253584.0 254084.1 254580.1 244090.3 244665.1 245235.4 245801.2 246362.5
 G, KJ/KG       -577243.5-578644.7-580046.9-555589.0-556963.9-558339.9-559717.1-561095.3
 S, KJ/(KG)(K)   140.0692 140.1684 140.2667 137.4308 137.5451 137.6584 137.7708 137.8822

 M, (1/n)           1.100    1.099    1.098    1.123    1.122    1.121    1.119    1.118
 (dLV/dLP)t      -1.06953 -1.06893 -1.06833 -1.08163 -1.08100 -1.08036 -1.07973 -1.07910
 (dLV/dLT)p        1.6199   1.6135   1.6072   1.7420   1.7350   1.7281   1.7212   1.7143
 Cp, KJ/(KG)(K)   62.4648  62.0119  61.5627  70.6040  70.1129  69.6242  69.1381  68.6546
 GAMMAs            1.3299   1.3312   1.3325   1.3097   1.3109   1.3121   1.3133   1.3145
 SON VEL,M/SEC     7940.2   7954.3   7968.4   7721.4   7735.8   7750.1   7764.4   7778.7

 TRANSPORT PROPERTIES (GASES ONLY)
   CONDUCTIVITY IN UNITS OF MILLIWATTS/(CM)(K)

 VISC,MILLIPOISE  0.76771  0.76774  0.76777  0.77673  0.77664  0.77656  0.77649  0.77642

  WITH EQUILIBRIUM REACTIONS

 Cp, KJ/(KG)(K)   62.4648  62.0119  61.5627  70.6040  70.1129  69.6242  69.1381  68.6546
 CONDUCTIVITY     78.2386  77.6688  77.1038  89.4435  88.8096  88.1795  87.5533  86.9311
 PRANDTL NUMBER    0.6129   0.6130   0.6130   0.6131   0.6131   0.6132   0.6132   0.6132

  WITH FROZEN REACTIONS

 Cp, KJ/(KG)(K)   20.6588  20.6586  20.6584  20.6656  20.6653  20.6651  20.6649  20.6647
 CONDUCTIVITY     22.5022  22.5124  22.5229  22.5809  22.5881  22.5955  22.6031  22.6108
 PRANDTL NUMBER    0.7048   0.7045   0.7042   0.7108   0.7105   0.7102   0.7099   0.7096

 MOLE FRACTIONS

 *e-              0.00002  0.00002  0.00002  0.00001  0.00001  0.00001  0.00001  0.00001
 *H               0.90893  0.91000  0.91106  0.88548  0.88682  0.88813  0.88944  0.89072
 *H+              0.00002  0.00002  0.00002  0.00001  0.00001  0.00001  0.00001  0.00001
 *H2              0.09104  0.08997  0.08891  0.11450  0.11316  0.11184  0.11054  0.10925

  * THERMODYNAMIC PROPERTIES FITTED TO 20000.K

 NOTE. WEIGHT FRACTION OF FUEL IN TOTAL FUELS AND OF OXIDANT IN TOTAL OXIDANTS









               THERMODYNAMIC EQUILIBRIUM PROPERTIES AT ASSIGNED

                           TEMPERATURE AND PRESSURE

 CASE =                

             REACTANT                    WT FRACTION      ENERGY      TEMP
                                          (SEE NOTE)     KJ/KG-MOL      K  
             H2                           1.0000000         0.000      0.000

 O/F=    0.00000  %FUEL=100.000000  R,EQ.RATIO= 0.000000  PHI,EQ.RATIO= 0.000000

 THERMODYNAMIC PROPERTIES

 P, BAR            49.000   49.000   49.000   49.000   49.000   49.000   49.000   49.000
 T, K             6200.00  6210.00  6220.00  6230.00  6240.00  6250.00  6260.00  6270.00
 RHO, KG/CU M    1.0615-1 1.0586-1 1.0557-1 1.0529-1 1.0500-1 1.0472-1 1.0444-1 1.0416-1
 H, KJ/KG        293079.5 293758.8 294433.4 295103.2 295768.4 296428.8 297084.6 297735.8
 U, KJ/KG        246919.3 247471.7 248019.7 248563.3 249102.6 249637.5 250168.2 250694.5
 G, KJ/KG       -562474.7-563855.2-565236.8-566619.4-568003.1-569387.9-570773.7-572160.6
 S, KJ/(KG)(K)   137.9926 138.1021 138.2106 138.3182 138.4249 138.5307 138.6355 138.7395

 M, (1/n)           1.117    1.115    1.114    1.113    1.112    1.111    1.109    1.108
 (dLV/dLP)t      -1.07847 -1.07784 -1.07722 -1.07659 -1.07597 -1.07536 -1.07474 -1.07413
 (dLV/dLT)p        1.7075   1.7007   1.6939   1.6872   1.6806   1.6740   1.6674   1.6609
 Cp, KJ/(KG)(K)   68.1738  67.6957  67.2203  66.7478  66.2783  65.8116  65.3479  64.8873
 GAMMAs            1.3157   1.3169   1.3181   1.3193   1.3205   1.3217   1.3230   1.3242
 SON VEL,M/SEC     7793.0   7807.3   7821.5   7835.8   7850.0   7864.2   7878.3   7892.5

 TRANSPORT PROPERTIES (GASES ONLY)
   CONDUCTIVITY IN UNITS OF MILLIWATTS/(CM)(K)

 VISC,MILLIPOISE  0.77636  0.77631  0.77626  0.77622  0.77618  0.77616  0.77613  0.77612

  WITH EQUILIBRIUM REACTIONS

 Cp, KJ/(KG)(K)   68.1738  67.6957  67.2203  66.7478  66.2783  65.8116  65.3479  64.8873
 CONDUCTIVITY     86.3129  85.6989  85.0890  84.4833  83.8819  83.2847  82.6919  82.1035
 PRANDTL NUMBER    0.6132   0.6132   0.6132   0.6133   0.6133   0.6133   0.6133   0.6134

  WITH FROZEN REACTIONS

 Cp, KJ/(KG)(K)   20.6644  20.6642  20.6640  20.6638  20.6635  20.6633  20.6631  20.6629
 CONDUCTIVITY     22.6187  22.6268  22.6350  22.6434  22.6520  22.6607  22.6696  22.6787
 PRANDTL NUMBER    0.7093   0.7090   0.7087   0.7084   0.7081   0.7077   0.7074   0.7071

 MOLE FRACTIONS

 *e-              0.00001  0.00001  0.00001  0.00001  0.00001  0.00001  0.00001  0.00002
 *H               0.89200  0.89325  0.89449  0.89572  0.89693  0.89812  0.89930  0.90047
 *H+              0.00001  0.00001  0.00001  0.00001  0.00001  0.00001  0.00001  0.00001
 *H2              0.10798  0.10672  0.10548  0.10425  0.10304  0.10185  0.10067  0.09950

  * THERMODYNAMIC PROPERTIES FITTED TO 20000.K

 NOTE. WEIGHT FRACTION OF FUEL IN TOTAL FUELS AND OF OXIDANT IN TOTAL OXIDANTS









               THERMODYNAMIC EQUILIBRIUM PROPERTIES AT ASSIGNED

                           TEMPERATURE AND PRESSURE

 CASE =                

             REACTANT                    WT FRACTION      ENERGY      TEMP
                                          (SEE NOTE)     KJ/KG-MOL      K  
             H2                           1.0000000         0.000      0.000

 O/F=    0.00000  %FUEL=100.000000  R,EQ.RATIO= 0.000000  PHI,EQ.RATIO= 0.000000

 THERMODYNAMIC PROPERTIES

 P, BAR            49.000   49.000   54.000   54.000   54.000   54.000   54.000   54.000
 T, K             6280.00  6290.00  6150.00  6160.00  6170.00  6180.00  6190.00  6200.00
 RHO, KG/CU M    1.0389-1 1.0362-1 1.1960-1 1.1925-1 1.1891-1 1.1857-1 1.1824-1 1.1790-1
 H, KJ/KG        298382.4 299024.4 286258.0 286983.0 287703.0 288418.2 289128.6 289834.3
 U, KJ/KG        251216.7 251734.7 241106.8 241701.2 242291.1 242876.5 243457.5 244034.0
 G, KJ/KG       -573548.5-574937.4-551183.9-552546.2-553909.7-555274.3-556640.1-558007.0
 S, KJ/(KG)(K)   138.8425 138.9446 136.1694 136.2872 136.4040 136.5198 136.6347 136.7486

 M, (1/n)           1.107    1.106    1.133    1.131    1.130    1.128    1.127    1.126
 (dLV/dLP)t      -1.07352 -1.07291 -1.08581 -1.08518 -1.08455 -1.08392 -1.08329 -1.08266
 (dLV/dLT)p        1.6544   1.6479   1.7800   1.7730   1.7660   1.7591   1.7522   1.7453
 Cp, KJ/(KG)(K)   64.4298  63.9753  72.7338  72.2477  71.7636  71.2814  70.8013  70.3232
 GAMMAs            1.3254   1.3267   1.3055   1.3066   1.3077   1.3089   1.3100   1.3111
 SON VEL,M/SEC     7906.6   7920.7   7677.5   7691.9   7706.2   7720.6   7734.9   7749.2

 TRANSPORT PROPERTIES (GASES ONLY)
   CONDUCTIVITY IN UNITS OF MILLIWATTS/(CM)(K)

 VISC,MILLIPOISE  0.77611  0.77611  0.78489  0.78479  0.78469  0.78459  0.78450  0.78442

  WITH EQUILIBRIUM REACTIONS

 Cp, KJ/(KG)(K)   64.4298  63.9753  72.7338  72.2477  71.7636  71.2814  70.8013  70.3232
 CONDUCTIVITY     81.5195  80.9400  93.0410  92.4043  91.7709  91.1408  90.5140  89.8907
 PRANDTL NUMBER    0.6134   0.6134   0.6136   0.6136   0.6136   0.6136   0.6136   0.6137

  WITH FROZEN REACTIONS

 Cp, KJ/(KG)(K)   20.6627  20.6625  20.6693  20.6690  20.6688  20.6686  20.6684  20.6682
 CONDUCTIVITY     22.6880  22.6974  22.7584  22.7649  22.7715  22.7782  22.7851  22.7922
 PRANDTL NUMBER    0.7068   0.7065   0.7128   0.7125   0.7122   0.7119   0.7116   0.7113

 MOLE FRACTIONS

 *e-              0.00002  0.00002  0.00001  0.00001  0.00001  0.00001  0.00001  0.00001
 *H               0.90162  0.90275  0.87638  0.87779  0.87919  0.88058  0.88194  0.88329
 *H+              0.00002  0.00002  0.00001  0.00001  0.00001  0.00001  0.00001  0.00001
 *H2              0.09835  0.09721  0.12360  0.12218  0.12078  0.11940  0.11803  0.11668

  * THERMODYNAMIC PROPERTIES FITTED TO 20000.K

 NOTE. WEIGHT FRACTION OF FUEL IN TOTAL FUELS AND OF OXIDANT IN TOTAL OXIDANTS









               THERMODYNAMIC EQUILIBRIUM PROPERTIES AT ASSIGNED

                           TEMPERATURE AND PRESSURE

 CASE =                

             REACTANT                    WT FRACTION      ENERGY      TEMP
                                          (SEE NOTE)     KJ/KG-MOL      K  
             H2                           1.0000000         0.000      0.000

 O/F=    0.00000  %FUEL=100.000000  R,EQ.RATIO= 0.000000  PHI,EQ.RATIO= 0.000000

 THERMODYNAMIC PROPERTIES

 P, BAR            54.000   54.000   54.000   54.000   54.000   54.000   54.000   54.000
 T, K             6210.00  6220.00  6230.00  6240.00  6250.00  6260.00  6270.00  6280.00
 RHO, KG/CU M    1.1757-1 1.1725-1 1.1692-1 1.1660-1 1.1628-1 1.1596-1 1.1565-1 1.1533-1
 H, KJ/KG        290535.1 291231.2 291922.6 292609.3 293291.3 293968.6 294641.4 295309.5
 U, KJ/KG        244606.1 245173.8 245737.2 246296.1 246850.8 247401.2 247947.2 248489.1
 G, KJ/KG       -559375.0-560744.2-562114.5-563485.9-564858.4-566232.0-567606.6-568982.4
 S, KJ/(KG)(K)   136.8615 136.9735 137.0846 137.1947 137.3039 137.4122 137.5196 137.6261

 M, (1/n)           1.124    1.123    1.122    1.120    1.119    1.118    1.116    1.115
 (dLV/dLP)t      -1.08204 -1.08141 -1.08079 -1.08017 -1.07955 -1.07893 -1.07832 -1.07771
 (dLV/dLT)p        1.7384   1.7316   1.7249   1.7182   1.7115   1.7048   1.6982   1.6916
 Cp, KJ/(KG)(K)   69.8474  69.3739  68.9026  68.4338  67.9674  67.5035  67.0422  66.5835
 GAMMAs            1.3123   1.3135   1.3146   1.3158   1.3170   1.3181   1.3193   1.3205
 SON VEL,M/SEC     7763.5   7777.8   7792.0   7806.3   7820.5   7834.7   7848.8   7863.0

 TRANSPORT PROPERTIES (GASES ONLY)
   CONDUCTIVITY IN UNITS OF MILLIWATTS/(CM)(K)

 VISC,MILLIPOISE  0.78434  0.78427  0.78420  0.78414  0.78409  0.78404  0.78400  0.78396

  WITH EQUILIBRIUM REACTIONS

 Cp, KJ/(KG)(K)   69.8474  69.3739  68.9026  68.4338  67.9674  67.5035  67.0422  66.5835
 CONDUCTIVITY     89.2710  88.6548  88.0423  87.4335  86.8285  86.2273  85.6300  85.0366
 PRANDTL NUMBER    0.6137   0.6137   0.6137   0.6137   0.6138   0.6138   0.6138   0.6138

  WITH FROZEN REACTIONS

 Cp, KJ/(KG)(K)   20.6680  20.6678  20.6676  20.6674  20.6672  20.6670  20.6668  20.6666
 CONDUCTIVITY     22.7994  22.8068  22.8144  22.8221  22.8300  22.8381  22.8463  22.8547
 PRANDTL NUMBER    0.7110   0.7107   0.7104   0.7101   0.7098   0.7095   0.7092   0.7089

 MOLE FRACTIONS

 *e-              0.00001  0.00001  0.00001  0.00001  0.00001  0.00001  0.00001  0.00001
 *H               0.88462  0.88594  0.88724  0.88853  0.88980  0.89105  0.89229  0.89352
 *H+              0.00001  0.00001  0.00001  0.00001  0.00001  0.00001  0.00001  0.00001
 *H2              0.11535  0.11403  0.11273  0.11144  0.11017  0.10892  0.10768  0.10645

  * THERMODYNAMIC PROPERTIES FITTED TO 20000.K

 NOTE. WEIGHT FRACTION OF FUEL IN TOTAL FUELS AND OF OXIDANT IN TOTAL OXIDANTS









               THERMODYNAMIC EQUILIBRIUM PROPERTIES AT ASSIGNED

                           TEMPERATURE AND PRESSURE

 CASE =                

             REACTANT                    WT FRACTION      ENERGY      TEMP
                                          (SEE NOTE)     KJ/KG-MOL      K  
             H2                           1.0000000         0.000      0.000

 O/F=    0.00000  %FUEL=100.000000  R,EQ.RATIO= 0.000000  PHI,EQ.RATIO= 0.000000

 THERMODYNAMIC PROPERTIES

 P, BAR            54.000
 T, K             6290.00
 RHO, KG/CU M    1.1502-1
 H, KJ/KG        295973.0
 U, KJ/KG        249026.7
 G, KJ/KG       -570359.1
 S, KJ/(KG)(K)   137.7317

 M, (1/n)           1.114
 (dLV/dLP)t      -1.07710
 (dLV/dLT)p        1.6851
 Cp, KJ/(KG)(K)   66.1275
 GAMMAs            1.3217
 SON VEL,M/SEC     7877.1

 TRANSPORT PROPERTIES (GASES ONLY)
   CONDUCTIVITY IN UNITS OF MILLIWATTS/(CM)(K)

 VISC,MILLIPOISE  0.78393

  WITH EQUILIBRIUM REACTIONS

 Cp, KJ/(KG)(K)   66.1275
 CONDUCTIVITY     84.4473
 PRANDTL NUMBER    0.6139

  WITH FROZEN REACTIONS

 Cp, KJ/(KG)(K)   20.6664
 CONDUCTIVITY     22.8632
 PRANDTL NUMBER    0.7086

 MOLE FRACTIONS

 *e-              0.00001
 *H               0.89473
 *H+              0.00001
 *H2              0.10524

  * THERMODYNAMIC PROPERTIES FITTED TO 20000.K

 NOTE. WEIGHT FRACTION OF FUEL IN TOTAL FUELS AND OF OXIDANT IN TOTAL OXIDANTS



  
