
 *******************************************************************************

         NASA-GLENN CHEMICAL EQUILIBRIUM PROGRAM CEA2, MAY 21, 2004
                   BY  BONNIE MCBRIDE AND SANFORD GORDON
      REFS: NASA RP-1311, PART I, 1994 AND NASA RP-1311, PART II, 1996

 *******************************************************************************



  prob tp ions
  p,bar= 60.0,67.0,74.0,82.5,91.0,100.0,110.0,120.0,132.0,148.0,165.0,180.0,200.0
 ,225.0,250.0
  t,k= 1050,1060,1070,1080,1090,1100,1110,1120,1130,1140,1150,1160,1170,1180,1190
  
  reac
  na H2                wt%=100.0000
  
  output short
  output siunits
  output transport
  
 end





               THERMODYNAMIC EQUILIBRIUM PROPERTIES AT ASSIGNED

                           TEMPERATURE AND PRESSURE

 CASE =                

             REACTANT                    WT FRACTION      ENERGY      TEMP
                                          (SEE NOTE)     KJ/KG-MOL      K  
             H2                           1.0000000         0.000      0.000

 O/F=    0.00000  %FUEL=100.000000  R,EQ.RATIO= 0.000000  PHI,EQ.RATIO= 0.000000

 THERMODYNAMIC PROPERTIES

 P, BAR            60.000   60.000   60.000   60.000   60.000   60.000   60.000   60.000
 T, K             1050.00  1060.00  1070.00  1080.00  1090.00  1100.00  1110.00  1120.00
 RHO, KG/CU M    1.3854 0 1.3724 0 1.3596 0 1.3470 0 1.3346 0 1.3225 0 1.3106 0 1.2989 0
 H, KJ/KG         11009.4  11160.1  11311.1  11462.2  11613.6  11765.1  11916.8  12068.8
 U, KJ/KG         6678.64  6788.17  6897.89  7007.80  7117.90  7228.19  7338.67  7449.36
 G, KJ/KG        -58605.4 -59269.0 -59934.1 -60600.6 -61268.6 -61937.9 -62608.6 -63280.7
 S, KJ/(KG)(K)    66.2998  66.4426  66.5843  66.7249  66.8644  67.0027  67.1401  67.2763

 M, (1/n)           2.016    2.016    2.016    2.016    2.016    2.016    2.016    2.016
 (dLV/dLP)t      -1.00000 -0.99999 -0.99999 -0.99999 -0.99999 -0.99999 -0.99999 -0.99999
 (dLV/dLT)p        1.0000   1.0000   1.0000   1.0000   1.0000   1.0000   1.0000   1.0000
 Cp, KJ/(KG)(K)   15.0691  15.0873  15.1058  15.1247  15.1438  15.1633  15.1830  15.2029
 GAMMAs            1.3769   1.3762   1.3756   1.3750   1.3743   1.3736   1.3730   1.3723
 SON VEL,M/SEC     2441.9   2452.9   2463.9   2474.8   2485.6   2496.4   2507.1   2517.8

 TRANSPORT PROPERTIES (GASES ONLY)
   CONDUCTIVITY IN UNITS OF MILLIWATTS/(CM)(K)

 VISC,MILLIPOISE  0.21277  0.21419  0.21560  0.21701  0.21841  0.21980  0.22120  0.22258

  WITH EQUILIBRIUM REACTIONS

 Cp, KJ/(KG)(K)   15.0691  15.0873  15.1058  15.1247  15.1438  15.1633  15.1830  15.2029
 CONDUCTIVITY      4.6142   4.6493   4.6845   4.7198   4.7551   4.7905   4.8259   4.8614
 PRANDTL NUMBER    0.6949   0.6950   0.6952   0.6954   0.6956   0.6957   0.6959   0.6961

  WITH FROZEN REACTIONS

 Cp, KJ/(KG)(K)   15.0691  15.0873  15.1058  15.1247  15.1438  15.1633  15.1830  15.2029
 CONDUCTIVITY      4.6142   4.6493   4.6845   4.7198   4.7551   4.7905   4.8259   4.8614
 PRANDTL NUMBER    0.6949   0.6950   0.6952   0.6954   0.6956   0.6957   0.6959   0.6961

 MOLE FRACTIONS

 *H2              1.00000  1.00000  1.00000  1.00000  1.00000  1.00000  1.00000  1.00000

  * THERMODYNAMIC PROPERTIES FITTED TO 20000.K

 NOTE. WEIGHT FRACTION OF FUEL IN TOTAL FUELS AND OF OXIDANT IN TOTAL OXIDANTS









               THERMODYNAMIC EQUILIBRIUM PROPERTIES AT ASSIGNED

                           TEMPERATURE AND PRESSURE

 CASE =                

             REACTANT                    WT FRACTION      ENERGY      TEMP
                                          (SEE NOTE)     KJ/KG-MOL      K  
             H2                           1.0000000         0.000      0.000

 O/F=    0.00000  %FUEL=100.000000  R,EQ.RATIO= 0.000000  PHI,EQ.RATIO= 0.000000

 THERMODYNAMIC PROPERTIES

 P, BAR            60.000   60.000   60.000   60.000   60.000   60.000   60.000   67.000
 T, K             1130.00  1140.00  1150.00  1160.00  1170.00  1180.00  1190.00  1050.00
 RHO, KG/CU M    1.2874 0 1.2761 0 1.2650 0 1.2541 0 1.2434 0 1.2328 0 1.2225 0 1.5471 0
 H, KJ/KG         12220.9  12373.2  12525.8  12678.5  12831.5  12984.6  13138.0  11009.4
 U, KJ/KG         7560.24  7671.33  7782.62  7894.13  8005.83  8117.75  8229.88  6678.64
 G, KJ/KG        -63954.1 -64628.9 -65305.0 -65982.5 -66661.3 -67341.3 -68022.7 -58127.4
 S, KJ/(KG)(K)    67.4115  67.5458  67.6790  67.8112  67.9425  68.0729  68.2023  65.8445

 M, (1/n)           2.016    2.016    2.016    2.016    2.016    2.016    2.016    2.016
 (dLV/dLP)t      -0.99999 -0.99999 -0.99999 -0.99999 -0.99999 -0.99999 -0.99999 -0.99999
 (dLV/dLT)p        1.0000   1.0000   1.0000   1.0000   1.0000   1.0000   1.0000   1.0000
 Cp, KJ/(KG)(K)   15.2231  15.2435  15.2641  15.2848  15.3057  15.3268  15.3480  15.0691
 GAMMAs            1.3716   1.3710   1.3703   1.3696   1.3689   1.3682   1.3675   1.3769
 SON VEL,M/SEC     2528.4   2538.9   2549.4   2559.8   2570.2   2580.5   2590.7   2441.9

 TRANSPORT PROPERTIES (GASES ONLY)
   CONDUCTIVITY IN UNITS OF MILLIWATTS/(CM)(K)

 VISC,MILLIPOISE  0.22396  0.22534  0.22671  0.22808  0.22944  0.23080  0.23215  0.21277

  WITH EQUILIBRIUM REACTIONS

 Cp, KJ/(KG)(K)   15.2231  15.2435  15.2641  15.2848  15.3057  15.3268  15.3480  15.0691
 CONDUCTIVITY      4.8969   4.9324   4.9680   5.0036   5.0393   5.0750   5.1107   4.6141
 PRANDTL NUMBER    0.6962   0.6964   0.6966   0.6967   0.6969   0.6970   0.6972   0.6949

  WITH FROZEN REACTIONS

 Cp, KJ/(KG)(K)   15.2231  15.2435  15.2641  15.2848  15.3057  15.3268  15.3480  15.0691
 CONDUCTIVITY      4.8969   4.9324   4.9680   5.0036   5.0393   5.0750   5.1107   4.6141
 PRANDTL NUMBER    0.6962   0.6964   0.6966   0.6967   0.6969   0.6970   0.6972   0.6949

 MOLE FRACTIONS

 *H2              1.00000  1.00000  1.00000  1.00000  1.00000  1.00000  1.00000  1.00000

  * THERMODYNAMIC PROPERTIES FITTED TO 20000.K

 NOTE. WEIGHT FRACTION OF FUEL IN TOTAL FUELS AND OF OXIDANT IN TOTAL OXIDANTS









               THERMODYNAMIC EQUILIBRIUM PROPERTIES AT ASSIGNED

                           TEMPERATURE AND PRESSURE

 CASE =                

             REACTANT                    WT FRACTION      ENERGY      TEMP
                                          (SEE NOTE)     KJ/KG-MOL      K  
             H2                           1.0000000         0.000      0.000

 O/F=    0.00000  %FUEL=100.000000  R,EQ.RATIO= 0.000000  PHI,EQ.RATIO= 0.000000

 THERMODYNAMIC PROPERTIES

 P, BAR            67.000   67.000   67.000   67.000   67.000   67.000   67.000   67.000
 T, K             1060.00  1070.00  1080.00  1090.00  1100.00  1110.00  1120.00  1130.00
 RHO, KG/CU M    1.5325 0 1.5182 0 1.5041 0 1.4903 0 1.4768 0 1.4635 0 1.4504 0 1.4376 0
 H, KJ/KG         11160.1  11311.1  11462.2  11613.6  11765.1  11916.8  12068.8  12220.9
 U, KJ/KG         6788.17  6897.89  7007.80  7117.90  7228.19  7338.67  7449.36  7560.24
 G, KJ/KG        -58786.5 -59447.1 -60109.1 -60772.5 -61437.2 -62103.4 -62770.9 -63439.8
 S, KJ/(KG)(K)    65.9874  66.1291  66.2697  66.4092  66.5476  66.6849  66.8212  66.9564

 M, (1/n)           2.016    2.016    2.016    2.016    2.016    2.016    2.016    2.016
 (dLV/dLP)t      -0.99999 -0.99999 -0.99999 -0.99999 -0.99999 -0.99999 -0.99999 -0.99999
 (dLV/dLT)p        1.0000   1.0000   1.0000   1.0000   1.0000   1.0000   1.0000   1.0000
 Cp, KJ/(KG)(K)   15.0872  15.1058  15.1247  15.1438  15.1633  15.1830  15.2029  15.2231
 GAMMAs            1.3762   1.3756   1.3750   1.3743   1.3736   1.3730   1.3723   1.3716
 SON VEL,M/SEC     2452.9   2463.9   2474.8   2485.6   2496.4   2507.1   2517.8   2528.4

 TRANSPORT PROPERTIES (GASES ONLY)
   CONDUCTIVITY IN UNITS OF MILLIWATTS/(CM)(K)

 VISC,MILLIPOISE  0.21419  0.21560  0.21701  0.21841  0.21980  0.22120  0.22258  0.22396

  WITH EQUILIBRIUM REACTIONS

 Cp, KJ/(KG)(K)   15.0873  15.1058  15.1247  15.1438  15.1633  15.1830  15.2029  15.2231
 CONDUCTIVITY      4.6493   4.6845   4.7198   4.7551   4.7905   4.8259   4.8614   4.8969
 PRANDTL NUMBER    0.6951   0.6952   0.6954   0.6956   0.6957   0.6959   0.6961   0.6962

  WITH FROZEN REACTIONS

 Cp, KJ/(KG)(K)   15.0872  15.1058  15.1247  15.1438  15.1633  15.1830  15.2029  15.2231
 CONDUCTIVITY      4.6493   4.6845   4.7198   4.7551   4.7905   4.8259   4.8614   4.8969
 PRANDTL NUMBER    0.6951   0.6952   0.6954   0.6956   0.6957   0.6959   0.6961   0.6962

 MOLE FRACTIONS

 *H2              1.00000  1.00000  1.00000  1.00000  1.00000  1.00000  1.00000  1.00000

  * THERMODYNAMIC PROPERTIES FITTED TO 20000.K

 NOTE. WEIGHT FRACTION OF FUEL IN TOTAL FUELS AND OF OXIDANT IN TOTAL OXIDANTS









               THERMODYNAMIC EQUILIBRIUM PROPERTIES AT ASSIGNED

                           TEMPERATURE AND PRESSURE

 CASE =                

             REACTANT                    WT FRACTION      ENERGY      TEMP
                                          (SEE NOTE)     KJ/KG-MOL      K  
             H2                           1.0000000         0.000      0.000

 O/F=    0.00000  %FUEL=100.000000  R,EQ.RATIO= 0.000000  PHI,EQ.RATIO= 0.000000

 THERMODYNAMIC PROPERTIES

 P, BAR            67.000   67.000   67.000   67.000   67.000   67.000   74.000   74.000
 T, K             1140.00  1150.00  1160.00  1170.00  1180.00  1190.00  1050.00  1060.00
 RHO, KG/CU M    1.4250 0 1.4126 0 1.4004 0 1.3884 0 1.3766 0 1.3651 0 1.7087 0 1.6926 0
 H, KJ/KG         12373.2  12525.8  12678.5  12831.5  12984.6  13138.0  11009.4  11160.1
 U, KJ/KG         7671.33  7782.62  7894.13  8005.83  8117.75  8229.88  6678.64  6788.17
 G, KJ/KG        -64110.1 -64781.6 -65454.5 -66128.8 -66804.3 -67481.1 -57697.1 -58352.1
 S, KJ/(KG)(K)    67.0906  67.2238  67.3561  67.4874  67.6177  67.7472  65.4347  65.5775

 M, (1/n)           2.016    2.016    2.016    2.016    2.016    2.016    2.016    2.016
 (dLV/dLP)t      -0.99999 -0.99999 -0.99999 -0.99999 -0.99999 -0.99999 -0.99999 -0.99999
 (dLV/dLT)p        1.0000   1.0000   1.0000   1.0000   1.0000   1.0000   1.0000   1.0000
 Cp, KJ/(KG)(K)   15.2435  15.2641  15.2848  15.3057  15.3268  15.3480  15.0691  15.0872
 GAMMAs            1.3710   1.3703   1.3696   1.3689   1.3682   1.3675   1.3769   1.3762
 SON VEL,M/SEC     2538.9   2549.4   2559.8   2570.2   2580.5   2590.7   2441.9   2452.9

 TRANSPORT PROPERTIES (GASES ONLY)
   CONDUCTIVITY IN UNITS OF MILLIWATTS/(CM)(K)

 VISC,MILLIPOISE  0.22534  0.22671  0.22808  0.22944  0.23080  0.23215  0.21277  0.21419

  WITH EQUILIBRIUM REACTIONS

 Cp, KJ/(KG)(K)   15.2435  15.2641  15.2848  15.3057  15.3268  15.3480  15.0691  15.0873
 CONDUCTIVITY      4.9324   4.9680   5.0036   5.0393   5.0750   5.1107   4.6141   4.6493
 PRANDTL NUMBER    0.6964   0.6966   0.6967   0.6969   0.6970   0.6972   0.6949   0.6951

  WITH FROZEN REACTIONS

 Cp, KJ/(KG)(K)   15.2435  15.2641  15.2848  15.3057  15.3268  15.3480  15.0691  15.0872
 CONDUCTIVITY      4.9324   4.9680   5.0036   5.0393   5.0750   5.1107   4.6141   4.6493
 PRANDTL NUMBER    0.6964   0.6966   0.6967   0.6969   0.6970   0.6972   0.6949   0.6951

 MOLE FRACTIONS

 *H2              1.00000  1.00000  1.00000  1.00000  1.00000  1.00000  1.00000  1.00000

  * THERMODYNAMIC PROPERTIES FITTED TO 20000.K

 NOTE. WEIGHT FRACTION OF FUEL IN TOTAL FUELS AND OF OXIDANT IN TOTAL OXIDANTS









               THERMODYNAMIC EQUILIBRIUM PROPERTIES AT ASSIGNED

                           TEMPERATURE AND PRESSURE

 CASE =                

             REACTANT                    WT FRACTION      ENERGY      TEMP
                                          (SEE NOTE)     KJ/KG-MOL      K  
             H2                           1.0000000         0.000      0.000

 O/F=    0.00000  %FUEL=100.000000  R,EQ.RATIO= 0.000000  PHI,EQ.RATIO= 0.000000

 THERMODYNAMIC PROPERTIES

 P, BAR            74.000   74.000   74.000   74.000   74.000   74.000   74.000   74.000
 T, K             1070.00  1080.00  1090.00  1100.00  1110.00  1120.00  1130.00  1140.00
 RHO, KG/CU M    1.6768 0 1.6613 0 1.6460 0 1.6311 0 1.6164 0 1.6019 0 1.5878 0 1.5738 0
 H, KJ/KG         11311.1  11462.2  11613.6  11765.1  11916.8  12068.8  12220.9  12373.2
 U, KJ/KG         6897.89  7007.80  7117.90  7228.19  7338.67  7449.36  7560.24  7671.33
 G, KJ/KG        -59008.5 -59666.4 -60325.7 -60986.4 -61648.5 -62311.9 -62976.7 -63642.8
 S, KJ/(KG)(K)    65.7193  65.8599  65.9994  66.1377  66.2751  66.4113  66.5465  66.6808

 M, (1/n)           2.016    2.016    2.016    2.016    2.016    2.016    2.016    2.016
 (dLV/dLP)t      -0.99999 -0.99999 -0.99999 -0.99999 -0.99999 -0.99999 -0.99999 -0.99999
 (dLV/dLT)p        1.0000   1.0000   1.0000   1.0000   1.0000   1.0000   1.0000   1.0000
 Cp, KJ/(KG)(K)   15.1058  15.1247  15.1438  15.1633  15.1830  15.2029  15.2231  15.2435
 GAMMAs            1.3756   1.3750   1.3743   1.3736   1.3730   1.3723   1.3716   1.3710
 SON VEL,M/SEC     2463.9   2474.8   2485.6   2496.4   2507.1   2517.8   2528.4   2538.9

 TRANSPORT PROPERTIES (GASES ONLY)
   CONDUCTIVITY IN UNITS OF MILLIWATTS/(CM)(K)

 VISC,MILLIPOISE  0.21560  0.21701  0.21841  0.21980  0.22120  0.22258  0.22396  0.22534

  WITH EQUILIBRIUM REACTIONS

 Cp, KJ/(KG)(K)   15.1058  15.1247  15.1438  15.1633  15.1830  15.2029  15.2231  15.2435
 CONDUCTIVITY      4.6845   4.7198   4.7551   4.7905   4.8259   4.8614   4.8969   4.9324
 PRANDTL NUMBER    0.6952   0.6954   0.6956   0.6957   0.6959   0.6961   0.6962   0.6964

  WITH FROZEN REACTIONS

 Cp, KJ/(KG)(K)   15.1058  15.1247  15.1438  15.1633  15.1830  15.2029  15.2231  15.2435
 CONDUCTIVITY      4.6845   4.7198   4.7551   4.7905   4.8259   4.8614   4.8969   4.9324
 PRANDTL NUMBER    0.6952   0.6954   0.6956   0.6957   0.6959   0.6961   0.6962   0.6964

 MOLE FRACTIONS

 *H2              1.00000  1.00000  1.00000  1.00000  1.00000  1.00000  1.00000  1.00000

  * THERMODYNAMIC PROPERTIES FITTED TO 20000.K

 NOTE. WEIGHT FRACTION OF FUEL IN TOTAL FUELS AND OF OXIDANT IN TOTAL OXIDANTS









               THERMODYNAMIC EQUILIBRIUM PROPERTIES AT ASSIGNED

                           TEMPERATURE AND PRESSURE

 CASE =                

             REACTANT                    WT FRACTION      ENERGY      TEMP
                                          (SEE NOTE)     KJ/KG-MOL      K  
             H2                           1.0000000         0.000      0.000

 O/F=    0.00000  %FUEL=100.000000  R,EQ.RATIO= 0.000000  PHI,EQ.RATIO= 0.000000

 THERMODYNAMIC PROPERTIES

 P, BAR            74.000   74.000   74.000   74.000   74.000   82.500   82.500   82.500
 T, K             1150.00  1160.00  1170.00  1180.00  1190.00  1050.00  1060.00  1070.00
 RHO, KG/CU M    1.5601 0 1.5467 0 1.5335 0 1.5205 0 1.5077 0 1.9050 0 1.8870 0 1.8694 0
 H, KJ/KG         12525.8  12678.5  12831.5  12984.6  13138.0  11009.4  11160.1  11311.1
 U, KJ/KG         7782.62  7894.13  8005.83  8117.75  8229.88  6678.64  6788.17  6897.89
 G, KJ/KG        -64310.3 -64979.1 -65649.2 -66320.6 -66993.4 -57226.2 -57876.7 -58528.7
 S, KJ/(KG)(K)    66.8140  66.9462  67.0775  67.2079  67.3373  64.9862  65.1291  65.2708

 M, (1/n)           2.016    2.016    2.016    2.016    2.016    2.016    2.016    2.016
 (dLV/dLP)t      -0.99999 -0.99999 -0.99999 -0.99999 -0.99999 -0.99999 -0.99999 -0.99999
 (dLV/dLT)p        1.0000   1.0000   1.0000   1.0000   1.0000   1.0000   1.0000   1.0000
 Cp, KJ/(KG)(K)   15.2641  15.2848  15.3057  15.3268  15.3480  15.0691  15.0872  15.1058
 GAMMAs            1.3703   1.3696   1.3689   1.3682   1.3675   1.3769   1.3762   1.3756
 SON VEL,M/SEC     2549.4   2559.8   2570.2   2580.5   2590.7   2441.9   2452.9   2463.9

 TRANSPORT PROPERTIES (GASES ONLY)
   CONDUCTIVITY IN UNITS OF MILLIWATTS/(CM)(K)

 VISC,MILLIPOISE  0.22671  0.22808  0.22944  0.23080  0.23215  0.21277  0.21419  0.21560

  WITH EQUILIBRIUM REACTIONS

 Cp, KJ/(KG)(K)   15.2641  15.2848  15.3057  15.3268  15.3480  15.0691  15.0873  15.1058
 CONDUCTIVITY      4.9680   5.0036   5.0393   5.0750   5.1107   4.6141   4.6493   4.6845
 PRANDTL NUMBER    0.6966   0.6967   0.6969   0.6970   0.6972   0.6949   0.6951   0.6952

  WITH FROZEN REACTIONS

 Cp, KJ/(KG)(K)   15.2641  15.2848  15.3057  15.3268  15.3480  15.0691  15.0872  15.1058
 CONDUCTIVITY      4.9680   5.0036   5.0393   5.0750   5.1107   4.6141   4.6493   4.6845
 PRANDTL NUMBER    0.6966   0.6967   0.6969   0.6970   0.6972   0.6949   0.6951   0.6952

 MOLE FRACTIONS

 *H2              1.00000  1.00000  1.00000  1.00000  1.00000  1.00000  1.00000  1.00000

  * THERMODYNAMIC PROPERTIES FITTED TO 20000.K

 NOTE. WEIGHT FRACTION OF FUEL IN TOTAL FUELS AND OF OXIDANT IN TOTAL OXIDANTS









               THERMODYNAMIC EQUILIBRIUM PROPERTIES AT ASSIGNED

                           TEMPERATURE AND PRESSURE

 CASE =                

             REACTANT                    WT FRACTION      ENERGY      TEMP
                                          (SEE NOTE)     KJ/KG-MOL      K  
             H2                           1.0000000         0.000      0.000

 O/F=    0.00000  %FUEL=100.000000  R,EQ.RATIO= 0.000000  PHI,EQ.RATIO= 0.000000

 THERMODYNAMIC PROPERTIES

 P, BAR            82.500   82.500   82.500   82.500   82.500   82.500   82.500   82.500
 T, K             1080.00  1090.00  1100.00  1110.00  1120.00  1130.00  1140.00  1150.00
 RHO, KG/CU M    1.8521 0 1.8351 0 1.8184 0 1.8020 0 1.7859 0 1.7701 0 1.7546 0 1.7393 0
 H, KJ/KG         11462.2  11613.6  11765.1  11916.8  12068.8  12220.9  12373.2  12525.8
 U, KJ/KG         7007.80  7117.90  7228.19  7338.67  7449.36  7560.24  7671.33  7782.62
 G, KJ/KG        -59182.1 -59836.9 -60493.1 -61150.7 -61809.6 -62469.9 -63131.6 -63794.6
 S, KJ/(KG)(K)    65.4114  65.5509  65.6893  65.8266  65.9628  66.0981  66.2323  66.3655

 M, (1/n)           2.016    2.016    2.016    2.016    2.016    2.016    2.016    2.016
 (dLV/dLP)t      -0.99999 -0.99999 -0.99999 -0.99999 -0.99999 -0.99999 -0.99999 -0.99999
 (dLV/dLT)p        1.0000   1.0000   1.0000   1.0000   1.0000   1.0000   1.0000   1.0000
 Cp, KJ/(KG)(K)   15.1247  15.1438  15.1633  15.1830  15.2029  15.2231  15.2435  15.2641
 GAMMAs            1.3750   1.3743   1.3736   1.3730   1.3723   1.3716   1.3710   1.3703
 SON VEL,M/SEC     2474.8   2485.6   2496.4   2507.1   2517.8   2528.4   2538.9   2549.4

 TRANSPORT PROPERTIES (GASES ONLY)
   CONDUCTIVITY IN UNITS OF MILLIWATTS/(CM)(K)

 VISC,MILLIPOISE  0.21701  0.21841  0.21980  0.22120  0.22258  0.22396  0.22534  0.22671

  WITH EQUILIBRIUM REACTIONS

 Cp, KJ/(KG)(K)   15.1247  15.1438  15.1633  15.1830  15.2029  15.2231  15.2435  15.2641
 CONDUCTIVITY      4.7198   4.7551   4.7905   4.8259   4.8614   4.8969   4.9324   4.9680
 PRANDTL NUMBER    0.6954   0.6956   0.6957   0.6959   0.6961   0.6962   0.6964   0.6966

  WITH FROZEN REACTIONS

 Cp, KJ/(KG)(K)   15.1247  15.1438  15.1633  15.1830  15.2029  15.2231  15.2435  15.2641
 CONDUCTIVITY      4.7198   4.7551   4.7905   4.8259   4.8614   4.8969   4.9324   4.9680
 PRANDTL NUMBER    0.6954   0.6956   0.6957   0.6959   0.6961   0.6962   0.6964   0.6966

 MOLE FRACTIONS

 *H2              1.00000  1.00000  1.00000  1.00000  1.00000  1.00000  1.00000  1.00000

  * THERMODYNAMIC PROPERTIES FITTED TO 20000.K

 NOTE. WEIGHT FRACTION OF FUEL IN TOTAL FUELS AND OF OXIDANT IN TOTAL OXIDANTS









               THERMODYNAMIC EQUILIBRIUM PROPERTIES AT ASSIGNED

                           TEMPERATURE AND PRESSURE

 CASE =                

             REACTANT                    WT FRACTION      ENERGY      TEMP
                                          (SEE NOTE)     KJ/KG-MOL      K  
             H2                           1.0000000         0.000      0.000

 O/F=    0.00000  %FUEL=100.000000  R,EQ.RATIO= 0.000000  PHI,EQ.RATIO= 0.000000

 THERMODYNAMIC PROPERTIES

 P, BAR            82.500   82.500   82.500   82.500   91.000   91.000   91.000   91.000
 T, K             1160.00  1170.00  1180.00  1190.00  1050.00  1060.00  1070.00  1080.00
 RHO, KG/CU M    1.7244 0 1.7096 0 1.6951 0 1.6809 0 2.1013 0 2.0814 0 2.0620 0 2.0429 0
 H, KJ/KG         12678.5  12831.5  12984.6  13138.0  11009.4  11160.1  11311.1  11462.2
 U, KJ/KG         7894.13  8005.83  8117.75  8229.88  6678.64  6788.17  6897.89  7007.80
 G, KJ/KG        -64458.9 -65124.5 -65791.5 -66459.7 -56801.5 -57448.0 -58095.9 -58745.3
 S, KJ/(KG)(K)    66.4978  66.6290  66.7594  66.8888  64.5818  64.7246  64.8663  65.0069

 M, (1/n)           2.016    2.016    2.016    2.016    2.016    2.016    2.016    2.016
 (dLV/dLP)t      -0.99999 -0.99999 -0.99999 -0.99999 -0.99999 -0.99999 -0.99999 -0.99999
 (dLV/dLT)p        1.0000   1.0000   1.0000   1.0000   1.0000   1.0000   1.0000   1.0000
 Cp, KJ/(KG)(K)   15.2848  15.3057  15.3268  15.3480  15.0691  15.0872  15.1058  15.1247
 GAMMAs            1.3696   1.3689   1.3682   1.3675   1.3769   1.3762   1.3756   1.3750
 SON VEL,M/SEC     2559.8   2570.2   2580.5   2590.7   2441.9   2452.9   2463.9   2474.8

 TRANSPORT PROPERTIES (GASES ONLY)
   CONDUCTIVITY IN UNITS OF MILLIWATTS/(CM)(K)

 VISC,MILLIPOISE  0.22808  0.22944  0.23080  0.23215  0.21277  0.21419  0.21560  0.21701

  WITH EQUILIBRIUM REACTIONS

 Cp, KJ/(KG)(K)   15.2848  15.3057  15.3268  15.3480  15.0691  15.0873  15.1058  15.1247
 CONDUCTIVITY      5.0036   5.0393   5.0750   5.1107   4.6141   4.6493   4.6845   4.7198
 PRANDTL NUMBER    0.6967   0.6969   0.6970   0.6972   0.6949   0.6951   0.6952   0.6954

  WITH FROZEN REACTIONS

 Cp, KJ/(KG)(K)   15.2848  15.3057  15.3268  15.3480  15.0691  15.0872  15.1058  15.1247
 CONDUCTIVITY      5.0036   5.0393   5.0750   5.1107   4.6141   4.6493   4.6845   4.7198
 PRANDTL NUMBER    0.6967   0.6969   0.6970   0.6972   0.6949   0.6951   0.6952   0.6954

 MOLE FRACTIONS

 *H2              1.00000  1.00000  1.00000  1.00000  1.00000  1.00000  1.00000  1.00000

  * THERMODYNAMIC PROPERTIES FITTED TO 20000.K

 NOTE. WEIGHT FRACTION OF FUEL IN TOTAL FUELS AND OF OXIDANT IN TOTAL OXIDANTS









               THERMODYNAMIC EQUILIBRIUM PROPERTIES AT ASSIGNED

                           TEMPERATURE AND PRESSURE

 CASE =                

             REACTANT                    WT FRACTION      ENERGY      TEMP
                                          (SEE NOTE)     KJ/KG-MOL      K  
             H2                           1.0000000         0.000      0.000

 O/F=    0.00000  %FUEL=100.000000  R,EQ.RATIO= 0.000000  PHI,EQ.RATIO= 0.000000

 THERMODYNAMIC PROPERTIES

 P, BAR            91.000   91.000   91.000   91.000   91.000   91.000   91.000   91.000
 T, K             1090.00  1100.00  1110.00  1120.00  1130.00  1140.00  1150.00  1160.00
 RHO, KG/CU M    2.0242 0 2.0058 0 1.9877 0 1.9699 0 1.9525 0 1.9354 0 1.9186 0 1.9020 0
 H, KJ/KG         11613.6  11765.1  11916.8  12068.8  12220.9  12373.2  12525.8  12678.5
 U, KJ/KG         7117.90  7228.19  7338.67  7449.36  7560.24  7671.33  7782.62  7894.12
 G, KJ/KG        -59396.0 -60048.2 -60701.7 -61356.6 -62012.9 -62670.5 -63329.4 -63989.7
 S, KJ/(KG)(K)    65.1464  65.2848  65.4221  65.5584  65.6936  65.8278  65.9611  66.0933

 M, (1/n)           2.016    2.016    2.016    2.016    2.016    2.016    2.016    2.016
 (dLV/dLP)t      -0.99999 -0.99999 -0.99999 -0.99999 -0.99999 -0.99999 -0.99999 -0.99999
 (dLV/dLT)p        1.0000   1.0000   1.0000   1.0000   1.0000   1.0000   1.0000   1.0000
 Cp, KJ/(KG)(K)   15.1438  15.1633  15.1830  15.2029  15.2231  15.2435  15.2641  15.2848
 GAMMAs            1.3743   1.3736   1.3730   1.3723   1.3716   1.3710   1.3703   1.3696
 SON VEL,M/SEC     2485.6   2496.4   2507.1   2517.8   2528.4   2538.9   2549.4   2559.8

 TRANSPORT PROPERTIES (GASES ONLY)
   CONDUCTIVITY IN UNITS OF MILLIWATTS/(CM)(K)

 VISC,MILLIPOISE  0.21841  0.21980  0.22120  0.22258  0.22396  0.22534  0.22671  0.22808

  WITH EQUILIBRIUM REACTIONS

 Cp, KJ/(KG)(K)   15.1438  15.1633  15.1830  15.2029  15.2231  15.2435  15.2641  15.2848
 CONDUCTIVITY      4.7551   4.7905   4.8259   4.8614   4.8969   4.9324   4.9680   5.0036
 PRANDTL NUMBER    0.6956   0.6957   0.6959   0.6961   0.6962   0.6964   0.6966   0.6967

  WITH FROZEN REACTIONS

 Cp, KJ/(KG)(K)   15.1438  15.1633  15.1830  15.2029  15.2231  15.2435  15.2641  15.2848
 CONDUCTIVITY      4.7551   4.7905   4.8259   4.8614   4.8969   4.9324   4.9680   5.0036
 PRANDTL NUMBER    0.6956   0.6957   0.6959   0.6961   0.6962   0.6964   0.6966   0.6967

 MOLE FRACTIONS

 *H2              1.00000  1.00000  1.00000  1.00000  1.00000  1.00000  1.00000  1.00000

  * THERMODYNAMIC PROPERTIES FITTED TO 20000.K

 NOTE. WEIGHT FRACTION OF FUEL IN TOTAL FUELS AND OF OXIDANT IN TOTAL OXIDANTS









               THERMODYNAMIC EQUILIBRIUM PROPERTIES AT ASSIGNED

                           TEMPERATURE AND PRESSURE

 CASE =                

             REACTANT                    WT FRACTION      ENERGY      TEMP
                                          (SEE NOTE)     KJ/KG-MOL      K  
             H2                           1.0000000         0.000      0.000

 O/F=    0.00000  %FUEL=100.000000  R,EQ.RATIO= 0.000000  PHI,EQ.RATIO= 0.000000

 THERMODYNAMIC PROPERTIES

 P, BAR            91.000   91.000   91.000   100.00   100.00   100.00   100.00   100.00
 T, K             1170.00  1180.00  1190.00  1050.00  1060.00  1070.00  1080.00  1090.00
 RHO, KG/CU M    1.8858 0 1.8698 0 1.8541 0 2.3091 0 2.2873 0 2.2659 0 2.2450 0 2.2244 0
 H, KJ/KG         12831.5  12984.6  13138.0  11009.4  11160.1  11311.1  11462.2  11613.6
 U, KJ/KG         8005.83  8117.75  8229.88  6678.64  6788.17  6897.89  7007.80  7117.90
 G, KJ/KG        -64651.3 -65314.2 -65978.4 -56393.1 -57035.6 -57679.7 -58325.2 -58972.0
 S, KJ/(KG)(K)    66.2246  66.3549  66.4844  64.1928  64.3356  64.4774  64.6180  64.7574

 M, (1/n)           2.016    2.016    2.016    2.016    2.016    2.016    2.016    2.016
 (dLV/dLP)t      -0.99999 -0.99999 -0.99999 -0.99999 -0.99999 -0.99999 -0.99999 -0.99999
 (dLV/dLT)p        1.0000   1.0000   1.0000   1.0000   1.0000   1.0000   1.0000   1.0000
 Cp, KJ/(KG)(K)   15.3057  15.3268  15.3480  15.0691  15.0872  15.1058  15.1247  15.1438
 GAMMAs            1.3689   1.3682   1.3675   1.3769   1.3762   1.3756   1.3750   1.3743
 SON VEL,M/SEC     2570.2   2580.5   2590.7   2441.9   2452.9   2463.9   2474.8   2485.6

 TRANSPORT PROPERTIES (GASES ONLY)
   CONDUCTIVITY IN UNITS OF MILLIWATTS/(CM)(K)

 VISC,MILLIPOISE  0.22944  0.23080  0.23215  0.21277  0.21419  0.21560  0.21701  0.21841

  WITH EQUILIBRIUM REACTIONS

 Cp, KJ/(KG)(K)   15.3057  15.3268  15.3480  15.0691  15.0873  15.1058  15.1247  15.1438
 CONDUCTIVITY      5.0393   5.0750   5.1107   4.6141   4.6493   4.6845   4.7198   4.7551
 PRANDTL NUMBER    0.6969   0.6970   0.6972   0.6949   0.6951   0.6952   0.6954   0.6956

  WITH FROZEN REACTIONS

 Cp, KJ/(KG)(K)   15.3057  15.3268  15.3480  15.0691  15.0872  15.1058  15.1247  15.1438
 CONDUCTIVITY      5.0393   5.0750   5.1107   4.6141   4.6493   4.6845   4.7198   4.7551
 PRANDTL NUMBER    0.6969   0.6970   0.6972   0.6949   0.6951   0.6952   0.6954   0.6956

 MOLE FRACTIONS

 *H2              1.00000  1.00000  1.00000  1.00000  1.00000  1.00000  1.00000  1.00000

  * THERMODYNAMIC PROPERTIES FITTED TO 20000.K

 NOTE. WEIGHT FRACTION OF FUEL IN TOTAL FUELS AND OF OXIDANT IN TOTAL OXIDANTS









               THERMODYNAMIC EQUILIBRIUM PROPERTIES AT ASSIGNED

                           TEMPERATURE AND PRESSURE

 CASE =                

             REACTANT                    WT FRACTION      ENERGY      TEMP
                                          (SEE NOTE)     KJ/KG-MOL      K  
             H2                           1.0000000         0.000      0.000

 O/F=    0.00000  %FUEL=100.000000  R,EQ.RATIO= 0.000000  PHI,EQ.RATIO= 0.000000

 THERMODYNAMIC PROPERTIES

 P, BAR            100.00   100.00   100.00   100.00   100.00   100.00   100.00   100.00
 T, K             1100.00  1110.00  1120.00  1130.00  1140.00  1150.00  1160.00  1170.00
 RHO, KG/CU M    2.2041 0 2.1843 0 2.1648 0 2.1456 0 2.1268 0 2.1083 0 2.0901 0 2.0723 0
 H, KJ/KG         11765.1  11916.8  12068.8  12220.9  12373.2  12525.8  12678.5  12831.5
 U, KJ/KG         7228.19  7338.67  7449.36  7560.24  7671.33  7782.62  7894.12  8005.83
 G, KJ/KG        -59620.3 -60269.9 -60921.0 -61573.3 -62227.0 -62882.1 -63538.5 -64196.2
 S, KJ/(KG)(K)    64.8958  65.0331  65.1694  65.3046  65.4388  65.5721  65.7043  65.8356

 M, (1/n)           2.016    2.016    2.016    2.016    2.016    2.016    2.016    2.016
 (dLV/dLP)t      -0.99999 -0.99999 -0.99999 -0.99999 -0.99999 -0.99999 -0.99999 -0.99999
 (dLV/dLT)p        1.0000   1.0000   1.0000   1.0000   1.0000   1.0000   1.0000   1.0000
 Cp, KJ/(KG)(K)   15.1633  15.1830  15.2029  15.2231  15.2435  15.2641  15.2848  15.3057
 GAMMAs            1.3736   1.3730   1.3723   1.3716   1.3710   1.3703   1.3696   1.3689
 SON VEL,M/SEC     2496.4   2507.1   2517.8   2528.4   2538.9   2549.4   2559.8   2570.2

 TRANSPORT PROPERTIES (GASES ONLY)
   CONDUCTIVITY IN UNITS OF MILLIWATTS/(CM)(K)

 VISC,MILLIPOISE  0.21980  0.22120  0.22258  0.22396  0.22534  0.22671  0.22808  0.22944

  WITH EQUILIBRIUM REACTIONS

 Cp, KJ/(KG)(K)   15.1633  15.1830  15.2029  15.2231  15.2435  15.2641  15.2848  15.3057
 CONDUCTIVITY      4.7905   4.8259   4.8614   4.8969   4.9324   4.9680   5.0036   5.0393
 PRANDTL NUMBER    0.6957   0.6959   0.6961   0.6962   0.6964   0.6966   0.6967   0.6969

  WITH FROZEN REACTIONS

 Cp, KJ/(KG)(K)   15.1633  15.1830  15.2029  15.2231  15.2435  15.2641  15.2848  15.3057
 CONDUCTIVITY      4.7905   4.8259   4.8614   4.8969   4.9324   4.9680   5.0036   5.0393
 PRANDTL NUMBER    0.6957   0.6959   0.6961   0.6962   0.6964   0.6966   0.6967   0.6969

 MOLE FRACTIONS

 *H2              1.00000  1.00000  1.00000  1.00000  1.00000  1.00000  1.00000  1.00000

  * THERMODYNAMIC PROPERTIES FITTED TO 20000.K

 NOTE. WEIGHT FRACTION OF FUEL IN TOTAL FUELS AND OF OXIDANT IN TOTAL OXIDANTS









               THERMODYNAMIC EQUILIBRIUM PROPERTIES AT ASSIGNED

                           TEMPERATURE AND PRESSURE

 CASE =                

             REACTANT                    WT FRACTION      ENERGY      TEMP
                                          (SEE NOTE)     KJ/KG-MOL      K  
             H2                           1.0000000         0.000      0.000

 O/F=    0.00000  %FUEL=100.000000  R,EQ.RATIO= 0.000000  PHI,EQ.RATIO= 0.000000

 THERMODYNAMIC PROPERTIES

 P, BAR            100.00   100.00   110.00   110.00   110.00   110.00   110.00   110.00
 T, K             1180.00  1190.00  1050.00  1060.00  1070.00  1080.00  1090.00  1100.00
 RHO, KG/CU M    2.0547 0 2.0374 0 2.5400 0 2.5160 0 2.4925 0 2.4694 0 2.4468 0 2.4245 0
 H, KJ/KG         12984.6  13138.0  11009.4  11160.1  11311.1  11462.2  11613.6  11765.1
 U, KJ/KG         8117.75  8229.88  6678.64  6788.17  6897.89  7007.80  7117.90  7228.19
 G, KJ/KG        -64855.2 -65515.5 -55980.3 -56618.9 -57259.1 -57900.6 -58543.5 -59187.9
 S, KJ/(KG)(K)    65.9660  66.0954  63.7997  63.9425  64.0843  64.2249  64.3643  64.5027

 M, (1/n)           2.016    2.016    2.016    2.016    2.016    2.016    2.016    2.016
 (dLV/dLP)t      -0.99999 -0.99999 -0.99999 -0.99999 -0.99999 -0.99999 -0.99999 -0.99999
 (dLV/dLT)p        1.0000   1.0000   1.0000   1.0000   1.0000   1.0000   1.0000   1.0000
 Cp, KJ/(KG)(K)   15.3268  15.3480  15.0691  15.0872  15.1058  15.1247  15.1438  15.1633
 GAMMAs            1.3682   1.3675   1.3769   1.3762   1.3756   1.3750   1.3743   1.3736
 SON VEL,M/SEC     2580.5   2590.7   2441.9   2452.9   2463.9   2474.8   2485.6   2496.4

 TRANSPORT PROPERTIES (GASES ONLY)
   CONDUCTIVITY IN UNITS OF MILLIWATTS/(CM)(K)

 VISC,MILLIPOISE  0.23080  0.23215  0.21277  0.21419  0.21560  0.21701  0.21841  0.21980

  WITH EQUILIBRIUM REACTIONS

 Cp, KJ/(KG)(K)   15.3268  15.3480  15.0691  15.0872  15.1058  15.1247  15.1438  15.1633
 CONDUCTIVITY      5.0750   5.1107   4.6141   4.6493   4.6845   4.7198   4.7551   4.7905
 PRANDTL NUMBER    0.6970   0.6972   0.6949   0.6951   0.6952   0.6954   0.6956   0.6957

  WITH FROZEN REACTIONS

 Cp, KJ/(KG)(K)   15.3268  15.3480  15.0691  15.0872  15.1058  15.1247  15.1438  15.1633
 CONDUCTIVITY      5.0750   5.1107   4.6141   4.6493   4.6845   4.7198   4.7551   4.7905
 PRANDTL NUMBER    0.6970   0.6972   0.6949   0.6951   0.6952   0.6954   0.6956   0.6957

 MOLE FRACTIONS

 *H2              1.00000  1.00000  1.00000  1.00000  1.00000  1.00000  1.00000  1.00000

  * THERMODYNAMIC PROPERTIES FITTED TO 20000.K

 NOTE. WEIGHT FRACTION OF FUEL IN TOTAL FUELS AND OF OXIDANT IN TOTAL OXIDANTS









               THERMODYNAMIC EQUILIBRIUM PROPERTIES AT ASSIGNED

                           TEMPERATURE AND PRESSURE

 CASE =                

             REACTANT                    WT FRACTION      ENERGY      TEMP
                                          (SEE NOTE)     KJ/KG-MOL      K  
             H2                           1.0000000         0.000      0.000

 O/F=    0.00000  %FUEL=100.000000  R,EQ.RATIO= 0.000000  PHI,EQ.RATIO= 0.000000

 THERMODYNAMIC PROPERTIES

 P, BAR            110.00   110.00   110.00   110.00   110.00   110.00   110.00   110.00
 T, K             1110.00  1120.00  1130.00  1140.00  1150.00  1160.00  1170.00  1180.00
 RHO, KG/CU M    2.4027 0 2.3813 0 2.3602 0 2.3395 0 2.3191 0 2.2991 0 2.2795 0 2.2602 0
 H, KJ/KG         11916.8  12068.8  12220.9  12373.2  12525.8  12678.5  12831.5  12984.6
 U, KJ/KG         7338.67  7449.36  7560.24  7671.33  7782.62  7894.12  8005.83  8117.75
 G, KJ/KG        -59833.6 -60480.7 -61129.1 -61778.9 -62430.0 -63082.5 -63736.3 -64391.3
 S, KJ/(KG)(K)    64.6400  64.7763  64.9115  65.0457  65.1790  65.3112  65.4425  65.5729

 M, (1/n)           2.016    2.016    2.016    2.016    2.016    2.016    2.016    2.016
 (dLV/dLP)t      -0.99999 -0.99999 -0.99999 -0.99999 -0.99999 -0.99999 -0.99999 -0.99999
 (dLV/dLT)p        1.0000   1.0000   1.0000   1.0000   1.0000   1.0000   1.0000   1.0000
 Cp, KJ/(KG)(K)   15.1830  15.2029  15.2231  15.2435  15.2641  15.2848  15.3057  15.3268
 GAMMAs            1.3730   1.3723   1.3716   1.3710   1.3703   1.3696   1.3689   1.3682
 SON VEL,M/SEC     2507.1   2517.8   2528.4   2538.9   2549.4   2559.8   2570.2   2580.5

 TRANSPORT PROPERTIES (GASES ONLY)
   CONDUCTIVITY IN UNITS OF MILLIWATTS/(CM)(K)

 VISC,MILLIPOISE  0.22120  0.22258  0.22396  0.22534  0.22671  0.22808  0.22944  0.23080

  WITH EQUILIBRIUM REACTIONS

 Cp, KJ/(KG)(K)   15.1830  15.2029  15.2231  15.2435  15.2641  15.2848  15.3057  15.3268
 CONDUCTIVITY      4.8259   4.8614   4.8969   4.9324   4.9680   5.0036   5.0393   5.0750
 PRANDTL NUMBER    0.6959   0.6961   0.6962   0.6964   0.6966   0.6967   0.6969   0.6970

  WITH FROZEN REACTIONS

 Cp, KJ/(KG)(K)   15.1830  15.2029  15.2231  15.2435  15.2641  15.2848  15.3057  15.3268
 CONDUCTIVITY      4.8259   4.8614   4.8969   4.9324   4.9680   5.0036   5.0393   5.0750
 PRANDTL NUMBER    0.6959   0.6961   0.6962   0.6964   0.6966   0.6967   0.6969   0.6970

 MOLE FRACTIONS

 *H2              1.00000  1.00000  1.00000  1.00000  1.00000  1.00000  1.00000  1.00000

  * THERMODYNAMIC PROPERTIES FITTED TO 20000.K

 NOTE. WEIGHT FRACTION OF FUEL IN TOTAL FUELS AND OF OXIDANT IN TOTAL OXIDANTS









               THERMODYNAMIC EQUILIBRIUM PROPERTIES AT ASSIGNED

                           TEMPERATURE AND PRESSURE

 CASE =                

             REACTANT                    WT FRACTION      ENERGY      TEMP
                                          (SEE NOTE)     KJ/KG-MOL      K  
             H2                           1.0000000         0.000      0.000

 O/F=    0.00000  %FUEL=100.000000  R,EQ.RATIO= 0.000000  PHI,EQ.RATIO= 0.000000

 THERMODYNAMIC PROPERTIES

 P, BAR            110.00   120.00   120.00   120.00   120.00   120.00   120.00   120.00
 T, K             1190.00  1050.00  1060.00  1070.00  1080.00  1090.00  1100.00  1110.00
 RHO, KG/CU M    2.2412 0 2.7709 0 2.7448 0 2.7191 0 2.6939 0 2.6692 0 2.6450 0 2.6211 0
 H, KJ/KG         13138.0  11009.4  11160.1  11311.1  11462.2  11613.6  11765.1  11916.8
 U, KJ/KG         8229.88  6678.64  6788.17  6897.89  7007.80  7117.90  7228.19  7338.67
 G, KJ/KG        -65047.7 -55603.5 -56238.5 -56875.1 -57513.0 -58152.4 -58793.1 -59435.2
 S, KJ/(KG)(K)    65.7023  63.4408  63.5836  63.7254  63.8660  64.0055  64.1438  64.2812

 M, (1/n)           2.016    2.016    2.016    2.016    2.016    2.016    2.016    2.016
 (dLV/dLP)t      -0.99999 -0.99999 -0.99999 -0.99999 -0.99999 -0.99999 -0.99999 -0.99999
 (dLV/dLT)p        1.0000   1.0000   1.0000   1.0000   1.0000   1.0000   1.0000   1.0000
 Cp, KJ/(KG)(K)   15.3480  15.0691  15.0872  15.1058  15.1247  15.1438  15.1633  15.1830
 GAMMAs            1.3675   1.3769   1.3762   1.3756   1.3750   1.3743   1.3736   1.3730
 SON VEL,M/SEC     2590.7   2441.9   2452.9   2463.9   2474.8   2485.6   2496.4   2507.1

 TRANSPORT PROPERTIES (GASES ONLY)
   CONDUCTIVITY IN UNITS OF MILLIWATTS/(CM)(K)

 VISC,MILLIPOISE  0.23215  0.21277  0.21419  0.21560  0.21701  0.21841  0.21980  0.22120

  WITH EQUILIBRIUM REACTIONS

 Cp, KJ/(KG)(K)   15.3480  15.0691  15.0872  15.1058  15.1247  15.1438  15.1633  15.1830
 CONDUCTIVITY      5.1107   4.6141   4.6493   4.6845   4.7198   4.7551   4.7905   4.8259
 PRANDTL NUMBER    0.6972   0.6949   0.6951   0.6952   0.6954   0.6956   0.6957   0.6959

  WITH FROZEN REACTIONS

 Cp, KJ/(KG)(K)   15.3480  15.0691  15.0872  15.1058  15.1247  15.1438  15.1633  15.1830
 CONDUCTIVITY      5.1107   4.6141   4.6493   4.6845   4.7198   4.7551   4.7905   4.8259
 PRANDTL NUMBER    0.6972   0.6949   0.6951   0.6952   0.6954   0.6956   0.6957   0.6959

 MOLE FRACTIONS

 *H2              1.00000  1.00000  1.00000  1.00000  1.00000  1.00000  1.00000  1.00000

  * THERMODYNAMIC PROPERTIES FITTED TO 20000.K

 NOTE. WEIGHT FRACTION OF FUEL IN TOTAL FUELS AND OF OXIDANT IN TOTAL OXIDANTS









               THERMODYNAMIC EQUILIBRIUM PROPERTIES AT ASSIGNED

                           TEMPERATURE AND PRESSURE

 CASE =                

             REACTANT                    WT FRACTION      ENERGY      TEMP
                                          (SEE NOTE)     KJ/KG-MOL      K  
             H2                           1.0000000         0.000      0.000

 O/F=    0.00000  %FUEL=100.000000  R,EQ.RATIO= 0.000000  PHI,EQ.RATIO= 0.000000

 THERMODYNAMIC PROPERTIES

 P, BAR            120.00   120.00   120.00   120.00   120.00   120.00   120.00   120.00
 T, K             1120.00  1130.00  1140.00  1150.00  1160.00  1170.00  1180.00  1190.00
 RHO, KG/CU M    2.5977 0 2.5747 0 2.5522 0 2.5300 0 2.5082 0 2.4867 0 2.4656 0 2.4449 0
 H, KJ/KG         12068.8  12220.9  12373.2  12525.8  12678.5  12831.5  12984.6  13138.0
 U, KJ/KG         7449.36  7560.24  7671.33  7782.62  7894.12  8005.83  8117.75  8229.88
 G, KJ/KG        -60078.7 -60723.6 -61369.8 -62017.3 -62666.2 -63316.4 -63967.9 -64620.6
 S, KJ/(KG)(K)    64.4174  64.5526  64.6869  64.8201  64.9523  65.0836  65.2140  65.3434

 M, (1/n)           2.016    2.016    2.016    2.016    2.016    2.016    2.016    2.016
 (dLV/dLP)t      -0.99999 -0.99999 -0.99999 -0.99999 -0.99999 -0.99999 -0.99999 -0.99999
 (dLV/dLT)p        1.0000   1.0000   1.0000   1.0000   1.0000   1.0000   1.0000   1.0000
 Cp, KJ/(KG)(K)   15.2029  15.2231  15.2435  15.2641  15.2848  15.3057  15.3268  15.3480
 GAMMAs            1.3723   1.3716   1.3710   1.3703   1.3696   1.3689   1.3682   1.3675
 SON VEL,M/SEC     2517.8   2528.4   2538.9   2549.4   2559.8   2570.2   2580.5   2590.7

 TRANSPORT PROPERTIES (GASES ONLY)
   CONDUCTIVITY IN UNITS OF MILLIWATTS/(CM)(K)

 VISC,MILLIPOISE  0.22258  0.22396  0.22534  0.22671  0.22808  0.22944  0.23080  0.23215

  WITH EQUILIBRIUM REACTIONS

 Cp, KJ/(KG)(K)   15.2029  15.2231  15.2435  15.2641  15.2848  15.3057  15.3268  15.3480
 CONDUCTIVITY      4.8614   4.8969   4.9324   4.9680   5.0036   5.0393   5.0750   5.1107
 PRANDTL NUMBER    0.6961   0.6962   0.6964   0.6966   0.6967   0.6969   0.6970   0.6972

  WITH FROZEN REACTIONS

 Cp, KJ/(KG)(K)   15.2029  15.2231  15.2435  15.2641  15.2848  15.3057  15.3268  15.3480
 CONDUCTIVITY      4.8614   4.8969   4.9324   4.9680   5.0036   5.0393   5.0750   5.1107
 PRANDTL NUMBER    0.6961   0.6962   0.6964   0.6966   0.6967   0.6969   0.6970   0.6972

 MOLE FRACTIONS

 *H2              1.00000  1.00000  1.00000  1.00000  1.00000  1.00000  1.00000  1.00000

  * THERMODYNAMIC PROPERTIES FITTED TO 20000.K

 NOTE. WEIGHT FRACTION OF FUEL IN TOTAL FUELS AND OF OXIDANT IN TOTAL OXIDANTS









               THERMODYNAMIC EQUILIBRIUM PROPERTIES AT ASSIGNED

                           TEMPERATURE AND PRESSURE

 CASE =                

             REACTANT                    WT FRACTION      ENERGY      TEMP
                                          (SEE NOTE)     KJ/KG-MOL      K  
             H2                           1.0000000         0.000      0.000

 O/F=    0.00000  %FUEL=100.000000  R,EQ.RATIO= 0.000000  PHI,EQ.RATIO= 0.000000

 THERMODYNAMIC PROPERTIES

 P, BAR            132.00   132.00   132.00   132.00   132.00   132.00   132.00   132.00
 T, K             1050.00  1060.00  1070.00  1080.00  1090.00  1100.00  1110.00  1120.00
 RHO, KG/CU M    3.0480 0 3.0192 0 2.9910 0 2.9633 0 2.9361 0 2.9095 0 2.8832 0 2.8575 0
 H, KJ/KG         11009.4  11160.1  11311.1  11462.2  11613.6  11765.1  11916.8  12068.8
 U, KJ/KG         6678.64  6788.17  6897.89  7007.80  7117.90  7228.19  7338.67  7449.36
 G, KJ/KG        -55190.7 -55821.8 -56454.4 -57088.5 -57723.9 -58360.7 -58998.9 -59638.5
 S, KJ/(KG)(K)    63.0477  63.1905  63.3323  63.4729  63.6124  63.7507  63.8881  64.0243

 M, (1/n)           2.016    2.016    2.016    2.016    2.016    2.016    2.016    2.016
 (dLV/dLP)t      -0.99999 -0.99999 -0.99999 -0.99999 -0.99999 -0.99999 -0.99999 -0.99999
 (dLV/dLT)p        1.0000   1.0000   1.0000   1.0000   1.0000   1.0000   1.0000   1.0000
 Cp, KJ/(KG)(K)   15.0691  15.0872  15.1058  15.1247  15.1438  15.1633  15.1830  15.2029
 GAMMAs            1.3769   1.3762   1.3756   1.3750   1.3743   1.3736   1.3730   1.3723
 SON VEL,M/SEC     2441.9   2452.9   2463.9   2474.8   2485.6   2496.4   2507.1   2517.8

 TRANSPORT PROPERTIES (GASES ONLY)
   CONDUCTIVITY IN UNITS OF MILLIWATTS/(CM)(K)

 VISC,MILLIPOISE  0.21277  0.21419  0.21560  0.21701  0.21841  0.21980  0.22120  0.22258

  WITH EQUILIBRIUM REACTIONS

 Cp, KJ/(KG)(K)   15.0691  15.0872  15.1058  15.1247  15.1438  15.1633  15.1830  15.2029
 CONDUCTIVITY      4.6141   4.6493   4.6845   4.7198   4.7551   4.7905   4.8259   4.8614
 PRANDTL NUMBER    0.6949   0.6951   0.6952   0.6954   0.6956   0.6957   0.6959   0.6961

  WITH FROZEN REACTIONS

 Cp, KJ/(KG)(K)   15.0691  15.0872  15.1058  15.1247  15.1438  15.1633  15.1830  15.2029
 CONDUCTIVITY      4.6141   4.6493   4.6845   4.7198   4.7551   4.7905   4.8259   4.8614
 PRANDTL NUMBER    0.6949   0.6951   0.6952   0.6954   0.6956   0.6957   0.6959   0.6961

 MOLE FRACTIONS

 *H2              1.00000  1.00000  1.00000  1.00000  1.00000  1.00000  1.00000  1.00000

  * THERMODYNAMIC PROPERTIES FITTED TO 20000.K

 NOTE. WEIGHT FRACTION OF FUEL IN TOTAL FUELS AND OF OXIDANT IN TOTAL OXIDANTS









               THERMODYNAMIC EQUILIBRIUM PROPERTIES AT ASSIGNED

                           TEMPERATURE AND PRESSURE

 CASE =                

             REACTANT                    WT FRACTION      ENERGY      TEMP
                                          (SEE NOTE)     KJ/KG-MOL      K  
             H2                           1.0000000         0.000      0.000

 O/F=    0.00000  %FUEL=100.000000  R,EQ.RATIO= 0.000000  PHI,EQ.RATIO= 0.000000

 THERMODYNAMIC PROPERTIES

 P, BAR            132.00   132.00   132.00   132.00   132.00   132.00   132.00   148.00
 T, K             1130.00  1140.00  1150.00  1160.00  1170.00  1180.00  1190.00  1050.00
 RHO, KG/CU M    2.8322 0 2.8074 0 2.7830 0 2.7590 0 2.7354 0 2.7122 0 2.6894 0 3.4174 0
 H, KJ/KG         12220.9  12373.2  12525.8  12678.5  12831.5  12984.6  13138.0  11009.4
 U, KJ/KG         7560.24  7671.33  7782.62  7894.12  8005.83  8117.75  8229.88  6678.64
 G, KJ/KG        -60279.4 -60921.6 -61565.2 -62210.2 -62856.4 -63504.0 -64152.8 -54695.2
 S, KJ/(KG)(K)    64.1595  64.2938  64.4270  64.5592  64.6905  64.8209  64.9503  62.5758

 M, (1/n)           2.016    2.016    2.016    2.016    2.016    2.016    2.016    2.016
 (dLV/dLP)t      -0.99999 -0.99999 -0.99999 -0.99999 -0.99999 -0.99999 -0.99999 -0.99999
 (dLV/dLT)p        1.0000   1.0000   1.0000   1.0000   1.0000   1.0000   1.0000   1.0000
 Cp, KJ/(KG)(K)   15.2231  15.2435  15.2641  15.2848  15.3057  15.3268  15.3480  15.0691
 GAMMAs            1.3716   1.3710   1.3703   1.3696   1.3689   1.3682   1.3675   1.3769
 SON VEL,M/SEC     2528.4   2538.9   2549.4   2559.8   2570.2   2580.5   2590.7   2441.9

 TRANSPORT PROPERTIES (GASES ONLY)
   CONDUCTIVITY IN UNITS OF MILLIWATTS/(CM)(K)

 VISC,MILLIPOISE  0.22396  0.22534  0.22671  0.22808  0.22944  0.23080  0.23215  0.21277

  WITH EQUILIBRIUM REACTIONS

 Cp, KJ/(KG)(K)   15.2231  15.2435  15.2641  15.2848  15.3057  15.3268  15.3480  15.0691
 CONDUCTIVITY      4.8969   4.9324   4.9680   5.0036   5.0393   5.0750   5.1107   4.6141
 PRANDTL NUMBER    0.6962   0.6964   0.6966   0.6967   0.6969   0.6970   0.6972   0.6949

  WITH FROZEN REACTIONS

 Cp, KJ/(KG)(K)   15.2231  15.2435  15.2641  15.2848  15.3057  15.3268  15.3480  15.0691
 CONDUCTIVITY      4.8969   4.9324   4.9680   5.0036   5.0393   5.0750   5.1107   4.6141
 PRANDTL NUMBER    0.6962   0.6964   0.6966   0.6967   0.6969   0.6970   0.6972   0.6949

 MOLE FRACTIONS

 *H2              1.00000  1.00000  1.00000  1.00000  1.00000  1.00000  1.00000  1.00000

  * THERMODYNAMIC PROPERTIES FITTED TO 20000.K

 NOTE. WEIGHT FRACTION OF FUEL IN TOTAL FUELS AND OF OXIDANT IN TOTAL OXIDANTS









               THERMODYNAMIC EQUILIBRIUM PROPERTIES AT ASSIGNED

                           TEMPERATURE AND PRESSURE

 CASE =                

             REACTANT                    WT FRACTION      ENERGY      TEMP
                                          (SEE NOTE)     KJ/KG-MOL      K  
             H2                           1.0000000         0.000      0.000

 O/F=    0.00000  %FUEL=100.000000  R,EQ.RATIO= 0.000000  PHI,EQ.RATIO= 0.000000

 THERMODYNAMIC PROPERTIES

 P, BAR            148.00   148.00   148.00   148.00   148.00   148.00   148.00   148.00
 T, K             1060.00  1070.00  1080.00  1090.00  1100.00  1110.00  1120.00  1130.00
 RHO, KG/CU M    3.3852 0 3.3536 0 3.3225 0 3.2920 0 3.2621 0 3.2327 0 3.2039 0 3.1755 0
 H, KJ/KG         11160.1  11311.1  11462.2  11613.6  11765.1  11916.8  12068.8  12220.9
 U, KJ/KG         6788.17  6897.89  7007.80  7117.90  7228.19  7338.67  7449.36  7560.24
 G, KJ/KG        -55321.6 -55949.5 -56578.8 -57209.5 -57841.6 -58475.1 -59109.9 -59746.1
 S, KJ/(KG)(K)    62.7187  62.8604  63.0010  63.1405  63.2789  63.4162  63.5524  63.6877

 M, (1/n)           2.016    2.016    2.016    2.016    2.016    2.016    2.016    2.016
 (dLV/dLP)t      -0.99999 -0.99999 -0.99999 -0.99999 -0.99999 -0.99999 -0.99999 -0.99999
 (dLV/dLT)p        1.0000   1.0000   1.0000   1.0000   1.0000   1.0000   1.0000   1.0000
 Cp, KJ/(KG)(K)   15.0872  15.1058  15.1247  15.1438  15.1633  15.1830  15.2029  15.2231
 GAMMAs            1.3762   1.3756   1.3750   1.3743   1.3736   1.3730   1.3723   1.3716
 SON VEL,M/SEC     2452.9   2463.9   2474.8   2485.6   2496.4   2507.1   2517.8   2528.4

 TRANSPORT PROPERTIES (GASES ONLY)
   CONDUCTIVITY IN UNITS OF MILLIWATTS/(CM)(K)

 VISC,MILLIPOISE  0.21419  0.21560  0.21701  0.21841  0.21980  0.22120  0.22258  0.22396

  WITH EQUILIBRIUM REACTIONS

 Cp, KJ/(KG)(K)   15.0872  15.1058  15.1247  15.1438  15.1633  15.1830  15.2029  15.2231
 CONDUCTIVITY      4.6493   4.6845   4.7198   4.7551   4.7905   4.8259   4.8614   4.8969
 PRANDTL NUMBER    0.6951   0.6952   0.6954   0.6956   0.6957   0.6959   0.6961   0.6962

  WITH FROZEN REACTIONS

 Cp, KJ/(KG)(K)   15.0872  15.1058  15.1247  15.1438  15.1633  15.1830  15.2029  15.2231
 CONDUCTIVITY      4.6493   4.6845   4.7198   4.7551   4.7905   4.8259   4.8614   4.8969
 PRANDTL NUMBER    0.6951   0.6952   0.6954   0.6956   0.6957   0.6959   0.6961   0.6962

 MOLE FRACTIONS

 *H2              1.00000  1.00000  1.00000  1.00000  1.00000  1.00000  1.00000  1.00000

  * THERMODYNAMIC PROPERTIES FITTED TO 20000.K

 NOTE. WEIGHT FRACTION OF FUEL IN TOTAL FUELS AND OF OXIDANT IN TOTAL OXIDANTS









               THERMODYNAMIC EQUILIBRIUM PROPERTIES AT ASSIGNED

                           TEMPERATURE AND PRESSURE

 CASE =                

             REACTANT                    WT FRACTION      ENERGY      TEMP
                                          (SEE NOTE)     KJ/KG-MOL      K  
             H2                           1.0000000         0.000      0.000

 O/F=    0.00000  %FUEL=100.000000  R,EQ.RATIO= 0.000000  PHI,EQ.RATIO= 0.000000

 THERMODYNAMIC PROPERTIES

 P, BAR            148.00   148.00   148.00   148.00   148.00   148.00   165.00   165.00
 T, K             1140.00  1150.00  1160.00  1170.00  1180.00  1190.00  1050.00  1060.00
 RHO, KG/CU M    3.1477 0 3.1203 0 3.0934 0 3.0669 0 3.0410 0 3.0154 0 3.8100 0 3.7741 0
 H, KJ/KG         12373.2  12525.8  12678.5  12831.5  12984.6  13138.0  11009.4  11160.1
 U, KJ/KG         7671.33  7782.62  7894.12  8005.83  8117.75  8229.88  6678.64  6788.17
 G, KJ/KG        -60383.7 -61022.6 -61662.8 -62304.3 -62947.2 -63591.3 -54224.3 -54846.3
 S, KJ/(KG)(K)    63.8219  63.9551  64.0873  64.2186  64.3490  64.4784  62.1273  62.2702

 M, (1/n)           2.016    2.016    2.016    2.016    2.016    2.016    2.016    2.016
 (dLV/dLP)t      -0.99999 -0.99999 -0.99999 -0.99999 -0.99999 -0.99999 -0.99999 -0.99999
 (dLV/dLT)p        1.0000   1.0000   1.0000   1.0000   1.0000   1.0000   1.0000   1.0000
 Cp, KJ/(KG)(K)   15.2435  15.2641  15.2848  15.3057  15.3268  15.3480  15.0691  15.0872
 GAMMAs            1.3710   1.3703   1.3696   1.3689   1.3682   1.3675   1.3769   1.3762
 SON VEL,M/SEC     2538.9   2549.4   2559.8   2570.2   2580.5   2590.7   2441.9   2452.9

 TRANSPORT PROPERTIES (GASES ONLY)
   CONDUCTIVITY IN UNITS OF MILLIWATTS/(CM)(K)

 VISC,MILLIPOISE  0.22534  0.22671  0.22808  0.22944  0.23080  0.23215  0.21277  0.21419

  WITH EQUILIBRIUM REACTIONS

 Cp, KJ/(KG)(K)   15.2435  15.2641  15.2848  15.3057  15.3268  15.3480  15.0691  15.0872
 CONDUCTIVITY      4.9324   4.9680   5.0036   5.0393   5.0750   5.1107   4.6141   4.6493
 PRANDTL NUMBER    0.6964   0.6966   0.6967   0.6969   0.6970   0.6972   0.6949   0.6951

  WITH FROZEN REACTIONS

 Cp, KJ/(KG)(K)   15.2435  15.2641  15.2848  15.3057  15.3268  15.3480  15.0691  15.0872
 CONDUCTIVITY      4.9324   4.9680   5.0036   5.0393   5.0750   5.1107   4.6141   4.6493
 PRANDTL NUMBER    0.6964   0.6966   0.6967   0.6969   0.6970   0.6972   0.6949   0.6951

 MOLE FRACTIONS

 *H2              1.00000  1.00000  1.00000  1.00000  1.00000  1.00000  1.00000  1.00000

  * THERMODYNAMIC PROPERTIES FITTED TO 20000.K

 NOTE. WEIGHT FRACTION OF FUEL IN TOTAL FUELS AND OF OXIDANT IN TOTAL OXIDANTS









               THERMODYNAMIC EQUILIBRIUM PROPERTIES AT ASSIGNED

                           TEMPERATURE AND PRESSURE

 CASE =                

             REACTANT                    WT FRACTION      ENERGY      TEMP
                                          (SEE NOTE)     KJ/KG-MOL      K  
             H2                           1.0000000         0.000      0.000

 O/F=    0.00000  %FUEL=100.000000  R,EQ.RATIO= 0.000000  PHI,EQ.RATIO= 0.000000

 THERMODYNAMIC PROPERTIES

 P, BAR            165.00   165.00   165.00   165.00   165.00   165.00   165.00   165.00
 T, K             1070.00  1080.00  1090.00  1100.00  1110.00  1120.00  1130.00  1140.00
 RHO, KG/CU M    3.7388 0 3.7042 0 3.6702 0 3.6368 0 3.6041 0 3.5719 0 3.5403 0 3.5092 0
 H, KJ/KG         11311.1  11462.2  11613.6  11765.1  11916.8  12068.8  12220.9  12373.2
 U, KJ/KG         6897.89  7007.80  7117.90  7228.19  7338.67  7449.36  7560.24  7671.33
 G, KJ/KG        -55469.7 -56094.5 -56720.7 -57348.3 -57977.3 -58607.7 -59239.4 -59872.4
 S, KJ/(KG)(K)    62.4119  62.5525  62.6920  62.8304  62.9677  63.1040  63.2392  63.3734

 M, (1/n)           2.016    2.016    2.016    2.016    2.016    2.016    2.016    2.016
 (dLV/dLP)t      -0.99999 -0.99999 -0.99999 -0.99999 -0.99999 -0.99999 -0.99999 -0.99999
 (dLV/dLT)p        1.0000   1.0000   1.0000   1.0000   1.0000   1.0000   1.0000   1.0000
 Cp, KJ/(KG)(K)   15.1058  15.1247  15.1438  15.1633  15.1830  15.2029  15.2231  15.2435
 GAMMAs            1.3756   1.3750   1.3743   1.3736   1.3730   1.3723   1.3716   1.3710
 SON VEL,M/SEC     2463.9   2474.8   2485.6   2496.4   2507.1   2517.8   2528.4   2538.9

 TRANSPORT PROPERTIES (GASES ONLY)
   CONDUCTIVITY IN UNITS OF MILLIWATTS/(CM)(K)

 VISC,MILLIPOISE  0.21560  0.21701  0.21841  0.21980  0.22120  0.22258  0.22396  0.22534

  WITH EQUILIBRIUM REACTIONS

 Cp, KJ/(KG)(K)   15.1058  15.1247  15.1438  15.1633  15.1830  15.2029  15.2231  15.2435
 CONDUCTIVITY      4.6845   4.7198   4.7551   4.7905   4.8259   4.8614   4.8969   4.9324
 PRANDTL NUMBER    0.6952   0.6954   0.6956   0.6957   0.6959   0.6961   0.6962   0.6964

  WITH FROZEN REACTIONS

 Cp, KJ/(KG)(K)   15.1058  15.1247  15.1438  15.1633  15.1830  15.2029  15.2231  15.2435
 CONDUCTIVITY      4.6845   4.7198   4.7551   4.7905   4.8259   4.8614   4.8969   4.9324
 PRANDTL NUMBER    0.6952   0.6954   0.6956   0.6957   0.6959   0.6961   0.6962   0.6964

 MOLE FRACTIONS

 *H2              1.00000  1.00000  1.00000  1.00000  1.00000  1.00000  1.00000  1.00000

  * THERMODYNAMIC PROPERTIES FITTED TO 20000.K

 NOTE. WEIGHT FRACTION OF FUEL IN TOTAL FUELS AND OF OXIDANT IN TOTAL OXIDANTS









               THERMODYNAMIC EQUILIBRIUM PROPERTIES AT ASSIGNED

                           TEMPERATURE AND PRESSURE

 CASE =                

             REACTANT                    WT FRACTION      ENERGY      TEMP
                                          (SEE NOTE)     KJ/KG-MOL      K  
             H2                           1.0000000         0.000      0.000

 O/F=    0.00000  %FUEL=100.000000  R,EQ.RATIO= 0.000000  PHI,EQ.RATIO= 0.000000

 THERMODYNAMIC PROPERTIES

 P, BAR            165.00   165.00   165.00   165.00   165.00   180.00   180.00   180.00
 T, K             1150.00  1160.00  1170.00  1180.00  1190.00  1050.00  1060.00  1070.00
 RHO, KG/CU M    3.4787 0 3.4487 0 3.4192 0 3.3903 0 3.3618 0 4.1564 0 4.1172 0 4.0787 0
 H, KJ/KG         12525.8  12678.5  12831.5  12984.6  13138.0  11009.4  11160.1  11311.1
 U, KJ/KG         7782.62  7894.12  8005.83  8117.75  8229.88  6678.64  6788.17  6897.89
 G, KJ/KG        -60506.8 -61142.6 -61779.6 -62418.0 -63057.6 -53847.5 -54465.9 -55085.7
 S, KJ/(KG)(K)    63.5066  63.6389  63.7702  63.9005  64.0299  61.7684  61.9113  62.0530

 M, (1/n)           2.016    2.016    2.016    2.016    2.016    2.016    2.016    2.016
 (dLV/dLP)t      -0.99999 -0.99999 -0.99999 -0.99999 -0.99999 -0.99999 -0.99999 -0.99999
 (dLV/dLT)p        1.0000   1.0000   1.0000   1.0000   1.0000   1.0000   1.0000   1.0000
 Cp, KJ/(KG)(K)   15.2641  15.2848  15.3057  15.3268  15.3480  15.0691  15.0872  15.1058
 GAMMAs            1.3703   1.3696   1.3689   1.3682   1.3675   1.3769   1.3762   1.3756
 SON VEL,M/SEC     2549.4   2559.8   2570.2   2580.5   2590.7   2441.9   2452.9   2463.9

 TRANSPORT PROPERTIES (GASES ONLY)
   CONDUCTIVITY IN UNITS OF MILLIWATTS/(CM)(K)

 VISC,MILLIPOISE  0.22671  0.22808  0.22944  0.23080  0.23215  0.21277  0.21419  0.21560

  WITH EQUILIBRIUM REACTIONS

 Cp, KJ/(KG)(K)   15.2641  15.2848  15.3057  15.3268  15.3480  15.0691  15.0872  15.1058
 CONDUCTIVITY      4.9680   5.0036   5.0393   5.0750   5.1107   4.6141   4.6493   4.6845
 PRANDTL NUMBER    0.6966   0.6967   0.6969   0.6970   0.6972   0.6949   0.6951   0.6952

  WITH FROZEN REACTIONS

 Cp, KJ/(KG)(K)   15.2641  15.2848  15.3057  15.3268  15.3480  15.0691  15.0872  15.1058
 CONDUCTIVITY      4.9680   5.0036   5.0393   5.0750   5.1107   4.6141   4.6493   4.6845
 PRANDTL NUMBER    0.6966   0.6967   0.6969   0.6970   0.6972   0.6949   0.6951   0.6952

 MOLE FRACTIONS

 *H2              1.00000  1.00000  1.00000  1.00000  1.00000  1.00000  1.00000  1.00000

  * THERMODYNAMIC PROPERTIES FITTED TO 20000.K

 NOTE. WEIGHT FRACTION OF FUEL IN TOTAL FUELS AND OF OXIDANT IN TOTAL OXIDANTS









               THERMODYNAMIC EQUILIBRIUM PROPERTIES AT ASSIGNED

                           TEMPERATURE AND PRESSURE

 CASE =                

             REACTANT                    WT FRACTION      ENERGY      TEMP
                                          (SEE NOTE)     KJ/KG-MOL      K  
             H2                           1.0000000         0.000      0.000

 O/F=    0.00000  %FUEL=100.000000  R,EQ.RATIO= 0.000000  PHI,EQ.RATIO= 0.000000

 THERMODYNAMIC PROPERTIES

 P, BAR            180.00   180.00   180.00   180.00   180.00   180.00   180.00   180.00
 T, K             1080.00  1090.00  1100.00  1110.00  1120.00  1130.00  1140.00  1150.00
 RHO, KG/CU M    4.0409 0 4.0038 0 3.9674 0 3.9317 0 3.8966 0 3.8621 0 3.8282 0 3.7949 0
 H, KJ/KG         11462.2  11613.6  11765.1  11916.8  12068.8  12220.9  12373.2  12525.8
 U, KJ/KG         7007.80  7117.90  7228.19  7338.67  7449.36  7560.24  7671.33  7782.62
 G, KJ/KG        -55706.9 -56329.5 -56953.5 -57578.9 -58205.7 -58833.8 -59463.3 -60094.1
 S, KJ/(KG)(K)    62.1936  62.3331  62.4715  62.6088  62.7451  62.8803  63.0145  63.1477

 M, (1/n)           2.016    2.016    2.016    2.016    2.016    2.016    2.016    2.016
 (dLV/dLP)t      -0.99999 -0.99999 -0.99999 -0.99999 -0.99999 -0.99999 -0.99999 -0.99999
 (dLV/dLT)p        1.0000   1.0000   1.0000   1.0000   1.0000   1.0000   1.0000   1.0000
 Cp, KJ/(KG)(K)   15.1247  15.1438  15.1633  15.1830  15.2029  15.2231  15.2435  15.2641
 GAMMAs            1.3750   1.3743   1.3736   1.3730   1.3723   1.3716   1.3710   1.3703
 SON VEL,M/SEC     2474.8   2485.6   2496.4   2507.1   2517.8   2528.4   2538.9   2549.4

 TRANSPORT PROPERTIES (GASES ONLY)
   CONDUCTIVITY IN UNITS OF MILLIWATTS/(CM)(K)

 VISC,MILLIPOISE  0.21701  0.21841  0.21980  0.22120  0.22258  0.22396  0.22534  0.22671

  WITH EQUILIBRIUM REACTIONS

 Cp, KJ/(KG)(K)   15.1247  15.1438  15.1633  15.1830  15.2029  15.2231  15.2435  15.2641
 CONDUCTIVITY      4.7198   4.7551   4.7905   4.8259   4.8614   4.8969   4.9324   4.9680
 PRANDTL NUMBER    0.6954   0.6956   0.6957   0.6959   0.6961   0.6962   0.6964   0.6966

  WITH FROZEN REACTIONS

 Cp, KJ/(KG)(K)   15.1247  15.1438  15.1633  15.1830  15.2029  15.2231  15.2435  15.2641
 CONDUCTIVITY      4.7198   4.7551   4.7905   4.8259   4.8614   4.8969   4.9324   4.9680
 PRANDTL NUMBER    0.6954   0.6956   0.6957   0.6959   0.6961   0.6962   0.6964   0.6966

 MOLE FRACTIONS

 *H2              1.00000  1.00000  1.00000  1.00000  1.00000  1.00000  1.00000  1.00000

  * THERMODYNAMIC PROPERTIES FITTED TO 20000.K

 NOTE. WEIGHT FRACTION OF FUEL IN TOTAL FUELS AND OF OXIDANT IN TOTAL OXIDANTS









               THERMODYNAMIC EQUILIBRIUM PROPERTIES AT ASSIGNED

                           TEMPERATURE AND PRESSURE

 CASE =                

             REACTANT                    WT FRACTION      ENERGY      TEMP
                                          (SEE NOTE)     KJ/KG-MOL      K  
             H2                           1.0000000         0.000      0.000

 O/F=    0.00000  %FUEL=100.000000  R,EQ.RATIO= 0.000000  PHI,EQ.RATIO= 0.000000

 THERMODYNAMIC PROPERTIES

 P, BAR            180.00   180.00   180.00   180.00   200.00   200.00   200.00   200.00
 T, K             1160.00  1170.00  1180.00  1190.00  1050.00  1060.00  1070.00  1080.00
 RHO, KG/CU M    3.7622 0 3.7301 0 3.6985 0 3.6674 0 4.6182 0 4.5746 0 4.5319 0 4.4899 0
 H, KJ/KG         12678.5  12831.5  12984.6  13138.0  11009.4  11160.1  11311.1  11462.2
 U, KJ/KG         7894.12  8005.83  8117.75  8229.88  6678.64  6788.17  6897.89  7007.80
 G, KJ/KG        -60726.3 -61359.7 -61994.5 -62630.5 -53391.2 -54005.2 -54620.7 -55237.6
 S, KJ/(KG)(K)    63.2800  63.4113  63.5416  63.6711  61.3339  61.4767  61.6185  61.7591

 M, (1/n)           2.016    2.016    2.016    2.016    2.016    2.016    2.016    2.016
 (dLV/dLP)t      -0.99999 -0.99999 -0.99999 -0.99999 -0.99999 -0.99999 -0.99999 -0.99999
 (dLV/dLT)p        1.0000   1.0000   1.0000   1.0000   1.0000   1.0000   1.0000   1.0000
 Cp, KJ/(KG)(K)   15.2848  15.3057  15.3268  15.3480  15.0691  15.0872  15.1058  15.1247
 GAMMAs            1.3696   1.3689   1.3682   1.3675   1.3769   1.3762   1.3756   1.3750
 SON VEL,M/SEC     2559.8   2570.2   2580.5   2590.7   2441.9   2452.9   2463.9   2474.8

 TRANSPORT PROPERTIES (GASES ONLY)
   CONDUCTIVITY IN UNITS OF MILLIWATTS/(CM)(K)

 VISC,MILLIPOISE  0.22808  0.22944  0.23080  0.23215  0.21277  0.21419  0.21560  0.21701

  WITH EQUILIBRIUM REACTIONS

 Cp, KJ/(KG)(K)   15.2848  15.3057  15.3268  15.3480  15.0691  15.0872  15.1058  15.1247
 CONDUCTIVITY      5.0036   5.0393   5.0750   5.1107   4.6141   4.6493   4.6845   4.7198
 PRANDTL NUMBER    0.6967   0.6969   0.6970   0.6972   0.6949   0.6951   0.6952   0.6954

  WITH FROZEN REACTIONS

 Cp, KJ/(KG)(K)   15.2848  15.3057  15.3268  15.3480  15.0691  15.0872  15.1058  15.1247
 CONDUCTIVITY      5.0036   5.0393   5.0750   5.1107   4.6141   4.6493   4.6845   4.7198
 PRANDTL NUMBER    0.6967   0.6969   0.6970   0.6972   0.6949   0.6951   0.6952   0.6954

 MOLE FRACTIONS

 *H2              1.00000  1.00000  1.00000  1.00000  1.00000  1.00000  1.00000  1.00000

  * THERMODYNAMIC PROPERTIES FITTED TO 20000.K

 NOTE. WEIGHT FRACTION OF FUEL IN TOTAL FUELS AND OF OXIDANT IN TOTAL OXIDANTS









               THERMODYNAMIC EQUILIBRIUM PROPERTIES AT ASSIGNED

                           TEMPERATURE AND PRESSURE

 CASE =                

             REACTANT                    WT FRACTION      ENERGY      TEMP
                                          (SEE NOTE)     KJ/KG-MOL      K  
             H2                           1.0000000         0.000      0.000

 O/F=    0.00000  %FUEL=100.000000  R,EQ.RATIO= 0.000000  PHI,EQ.RATIO= 0.000000

 THERMODYNAMIC PROPERTIES

 P, BAR            200.00   200.00   200.00   200.00   200.00   200.00   200.00   200.00
 T, K             1090.00  1100.00  1110.00  1120.00  1130.00  1140.00  1150.00  1160.00
 RHO, KG/CU M    4.4487 0 4.4083 0 4.3686 0 4.3295 0 4.2912 0 4.2536 0 4.2166 0 4.1803 0
 H, KJ/KG         11613.6  11765.1  11916.8  12068.8  12220.9  12373.2  12525.8  12678.5
 U, KJ/KG         7117.90  7228.19  7338.67  7449.36  7560.24  7671.33  7782.62  7894.12
 G, KJ/KG        -55855.8 -56475.5 -57096.6 -57719.0 -58342.8 -58967.9 -59594.4 -60222.2
 S, KJ/(KG)(K)    61.8986  62.0369  62.1743  62.3105  62.4457  62.5800  62.7132  62.8454

 M, (1/n)           2.016    2.016    2.016    2.016    2.016    2.016    2.016    2.016
 (dLV/dLP)t      -0.99999 -0.99999 -0.99999 -0.99999 -0.99999 -0.99999 -0.99999 -0.99999
 (dLV/dLT)p        1.0000   1.0000   1.0000   1.0000   1.0000   1.0000   1.0000   1.0000
 Cp, KJ/(KG)(K)   15.1438  15.1633  15.1830  15.2029  15.2231  15.2435  15.2641  15.2848
 GAMMAs            1.3743   1.3736   1.3730   1.3723   1.3716   1.3710   1.3703   1.3696
 SON VEL,M/SEC     2485.6   2496.4   2507.1   2517.8   2528.4   2538.9   2549.4   2559.8

 TRANSPORT PROPERTIES (GASES ONLY)
   CONDUCTIVITY IN UNITS OF MILLIWATTS/(CM)(K)

 VISC,MILLIPOISE  0.21841  0.21980  0.22120  0.22258  0.22396  0.22534  0.22671  0.22808

  WITH EQUILIBRIUM REACTIONS

 Cp, KJ/(KG)(K)   15.1438  15.1633  15.1830  15.2029  15.2231  15.2435  15.2641  15.2848
 CONDUCTIVITY      4.7551   4.7905   4.8259   4.8614   4.8969   4.9324   4.9680   5.0036
 PRANDTL NUMBER    0.6956   0.6957   0.6959   0.6961   0.6962   0.6964   0.6966   0.6967

  WITH FROZEN REACTIONS

 Cp, KJ/(KG)(K)   15.1438  15.1633  15.1830  15.2029  15.2231  15.2435  15.2641  15.2848
 CONDUCTIVITY      4.7551   4.7905   4.8259   4.8614   4.8969   4.9324   4.9680   5.0036
 PRANDTL NUMBER    0.6956   0.6957   0.6959   0.6961   0.6962   0.6964   0.6966   0.6967

 MOLE FRACTIONS

 *H2              1.00000  1.00000  1.00000  1.00000  1.00000  1.00000  1.00000  1.00000

  * THERMODYNAMIC PROPERTIES FITTED TO 20000.K

 NOTE. WEIGHT FRACTION OF FUEL IN TOTAL FUELS AND OF OXIDANT IN TOTAL OXIDANTS









               THERMODYNAMIC EQUILIBRIUM PROPERTIES AT ASSIGNED

                           TEMPERATURE AND PRESSURE

 CASE =                

             REACTANT                    WT FRACTION      ENERGY      TEMP
                                          (SEE NOTE)     KJ/KG-MOL      K  
             H2                           1.0000000         0.000      0.000

 O/F=    0.00000  %FUEL=100.000000  R,EQ.RATIO= 0.000000  PHI,EQ.RATIO= 0.000000

 THERMODYNAMIC PROPERTIES

 P, BAR            200.00   200.00   200.00   225.00   225.00   225.00   225.00   225.00
 T, K             1170.00  1180.00  1190.00  1050.00  1060.00  1070.00  1080.00  1090.00
 RHO, KG/CU M    4.1445 0 4.1094 0 4.0749 0 5.1954 0 5.1464 0 5.0983 0 5.0511 0 5.0048 0
 H, KJ/KG         12831.5  12984.6  13138.0  11009.4  11160.1  11311.1  11462.2  11613.6
 U, KJ/KG         8005.83  8117.75  8229.88  6678.64  6788.17  6897.89  7007.80  7117.90
 G, KJ/KG        -60851.3 -61481.7 -62113.4 -52881.1 -53490.3 -54100.9 -54712.9 -55326.3
 S, KJ/(KG)(K)    62.9767  63.1071  63.2365  60.8481  60.9909  61.1327  61.2733  61.4128

 M, (1/n)           2.016    2.016    2.016    2.016    2.016    2.016    2.016    2.016
 (dLV/dLP)t      -0.99999 -0.99999 -0.99999 -0.99999 -0.99999 -0.99999 -0.99999 -0.99999
 (dLV/dLT)p        1.0000   1.0000   1.0000   1.0000   1.0000   1.0000   1.0000   1.0000
 Cp, KJ/(KG)(K)   15.3057  15.3268  15.3480  15.0691  15.0872  15.1058  15.1247  15.1438
 GAMMAs            1.3689   1.3682   1.3675   1.3769   1.3762   1.3756   1.3750   1.3743
 SON VEL,M/SEC     2570.2   2580.5   2590.7   2441.9   2452.9   2463.9   2474.8   2485.6

 TRANSPORT PROPERTIES (GASES ONLY)
   CONDUCTIVITY IN UNITS OF MILLIWATTS/(CM)(K)

 VISC,MILLIPOISE  0.22944  0.23080  0.23215  0.21277  0.21419  0.21560  0.21701  0.21841

  WITH EQUILIBRIUM REACTIONS

 Cp, KJ/(KG)(K)   15.3057  15.3268  15.3480  15.0691  15.0872  15.1058  15.1247  15.1438
 CONDUCTIVITY      5.0393   5.0750   5.1107   4.6141   4.6493   4.6845   4.7198   4.7551
 PRANDTL NUMBER    0.6969   0.6970   0.6972   0.6949   0.6951   0.6952   0.6954   0.6956

  WITH FROZEN REACTIONS

 Cp, KJ/(KG)(K)   15.3057  15.3268  15.3480  15.0691  15.0872  15.1058  15.1247  15.1438
 CONDUCTIVITY      5.0393   5.0750   5.1107   4.6141   4.6493   4.6845   4.7198   4.7551
 PRANDTL NUMBER    0.6969   0.6970   0.6972   0.6949   0.6951   0.6952   0.6954   0.6956

 MOLE FRACTIONS

 *H2              1.00000  1.00000  1.00000  1.00000  1.00000  1.00000  1.00000  1.00000

  * THERMODYNAMIC PROPERTIES FITTED TO 20000.K

 NOTE. WEIGHT FRACTION OF FUEL IN TOTAL FUELS AND OF OXIDANT IN TOTAL OXIDANTS









               THERMODYNAMIC EQUILIBRIUM PROPERTIES AT ASSIGNED

                           TEMPERATURE AND PRESSURE

 CASE =                

             REACTANT                    WT FRACTION      ENERGY      TEMP
                                          (SEE NOTE)     KJ/KG-MOL      K  
             H2                           1.0000000         0.000      0.000

 O/F=    0.00000  %FUEL=100.000000  R,EQ.RATIO= 0.000000  PHI,EQ.RATIO= 0.000000

 THERMODYNAMIC PROPERTIES

 P, BAR            225.00   225.00   225.00   225.00   225.00   225.00   225.00   225.00
 T, K             1100.00  1110.00  1120.00  1130.00  1140.00  1150.00  1160.00  1170.00
 RHO, KG/CU M    4.9593 0 4.9146 0 4.8707 0 4.8276 0 4.7853 0 4.7437 0 4.7028 0 4.6626 0
 H, KJ/KG         11765.1  11916.8  12068.8  12220.9  12373.2  12525.8  12678.5  12831.5
 U, KJ/KG         7228.19  7338.67  7449.36  7560.24  7671.33  7782.62  7894.12  8005.83
 G, KJ/KG        -55941.1 -56557.3 -57174.9 -57793.8 -58414.1 -59035.7 -59658.6 -60282.9
 S, KJ/(KG)(K)    61.5511  61.6885  61.8247  61.9599  62.0942  62.2274  62.3596  62.4909

 M, (1/n)           2.016    2.016    2.016    2.016    2.016    2.016    2.016    2.016
 (dLV/dLP)t      -0.99999 -0.99999 -0.99999 -0.99999 -0.99999 -0.99999 -0.99999 -0.99999
 (dLV/dLT)p        1.0000   1.0000   1.0000   1.0000   1.0000   1.0000   1.0000   1.0000
 Cp, KJ/(KG)(K)   15.1633  15.1830  15.2029  15.2231  15.2435  15.2641  15.2848  15.3057
 GAMMAs            1.3736   1.3730   1.3723   1.3716   1.3710   1.3703   1.3696   1.3689
 SON VEL,M/SEC     2496.4   2507.1   2517.8   2528.4   2538.9   2549.4   2559.8   2570.2

 TRANSPORT PROPERTIES (GASES ONLY)
   CONDUCTIVITY IN UNITS OF MILLIWATTS/(CM)(K)

 VISC,MILLIPOISE  0.21980  0.22120  0.22258  0.22396  0.22534  0.22671  0.22808  0.22944

  WITH EQUILIBRIUM REACTIONS

 Cp, KJ/(KG)(K)   15.1633  15.1830  15.2029  15.2231  15.2435  15.2641  15.2848  15.3057
 CONDUCTIVITY      4.7905   4.8259   4.8614   4.8969   4.9324   4.9680   5.0036   5.0393
 PRANDTL NUMBER    0.6957   0.6959   0.6961   0.6962   0.6964   0.6966   0.6967   0.6969

  WITH FROZEN REACTIONS

 Cp, KJ/(KG)(K)   15.1633  15.1830  15.2029  15.2231  15.2435  15.2641  15.2848  15.3057
 CONDUCTIVITY      4.7905   4.8259   4.8614   4.8969   4.9324   4.9680   5.0036   5.0393
 PRANDTL NUMBER    0.6957   0.6959   0.6961   0.6962   0.6964   0.6966   0.6967   0.6969

 MOLE FRACTIONS

 *H2              1.00000  1.00000  1.00000  1.00000  1.00000  1.00000  1.00000  1.00000

  * THERMODYNAMIC PROPERTIES FITTED TO 20000.K

 NOTE. WEIGHT FRACTION OF FUEL IN TOTAL FUELS AND OF OXIDANT IN TOTAL OXIDANTS









               THERMODYNAMIC EQUILIBRIUM PROPERTIES AT ASSIGNED

                           TEMPERATURE AND PRESSURE

 CASE =                

             REACTANT                    WT FRACTION      ENERGY      TEMP
                                          (SEE NOTE)     KJ/KG-MOL      K  
             H2                           1.0000000         0.000      0.000

 O/F=    0.00000  %FUEL=100.000000  R,EQ.RATIO= 0.000000  PHI,EQ.RATIO= 0.000000

 THERMODYNAMIC PROPERTIES

 P, BAR            225.00   225.00   250.00   250.00   250.00   250.00   250.00   250.00
 T, K             1180.00  1190.00  1050.00  1060.00  1070.00  1080.00  1090.00  1100.00
 RHO, KG/CU M    4.6231 0 4.5842 0 5.7727 0 5.7183 0 5.6648 0 5.6124 0 5.5609 0 5.5103 0
 H, KJ/KG         12984.6  13138.0  11009.4  11160.1  11311.1  11462.2  11613.6  11765.1
 U, KJ/KG         8117.75  8229.88  6678.64  6788.17  6897.89  7007.80  7117.90  7228.19
 G, KJ/KG        -60908.5 -61535.3 -52424.8 -53029.6 -53635.9 -54243.6 -54852.7 -55463.1
 S, KJ/(KG)(K)    62.6213  62.7507  60.4135  60.5564  60.6981  60.8387  60.9782  61.1166

 M, (1/n)           2.016    2.016    2.016    2.016    2.016    2.016    2.016    2.016
 (dLV/dLP)t      -0.99999 -0.99999 -0.99999 -0.99999 -0.99999 -0.99999 -0.99999 -0.99999
 (dLV/dLT)p        1.0000   1.0000   1.0000   1.0000   1.0000   1.0000   1.0000   1.0000
 Cp, KJ/(KG)(K)   15.3268  15.3480  15.0691  15.0872  15.1058  15.1247  15.1438  15.1633
 GAMMAs            1.3682   1.3675   1.3769   1.3762   1.3756   1.3750   1.3743   1.3736
 SON VEL,M/SEC     2580.5   2590.7   2441.9   2452.9   2463.9   2474.8   2485.6   2496.4

 TRANSPORT PROPERTIES (GASES ONLY)
   CONDUCTIVITY IN UNITS OF MILLIWATTS/(CM)(K)

 VISC,MILLIPOISE  0.23080  0.23215  0.21277  0.21419  0.21560  0.21701  0.21841  0.21980

  WITH EQUILIBRIUM REACTIONS

 Cp, KJ/(KG)(K)   15.3268  15.3480  15.0691  15.0872  15.1058  15.1247  15.1438  15.1633
 CONDUCTIVITY      5.0750   5.1107   4.6141   4.6493   4.6845   4.7198   4.7551   4.7905
 PRANDTL NUMBER    0.6970   0.6972   0.6949   0.6951   0.6952   0.6954   0.6956   0.6957

  WITH FROZEN REACTIONS

 Cp, KJ/(KG)(K)   15.3268  15.3480  15.0691  15.0872  15.1058  15.1247  15.1438  15.1633
 CONDUCTIVITY      5.0750   5.1107   4.6141   4.6493   4.6845   4.7198   4.7551   4.7905
 PRANDTL NUMBER    0.6970   0.6972   0.6949   0.6951   0.6952   0.6954   0.6956   0.6957

 MOLE FRACTIONS

 *H2              1.00000  1.00000  1.00000  1.00000  1.00000  1.00000  1.00000  1.00000

  * THERMODYNAMIC PROPERTIES FITTED TO 20000.K

 NOTE. WEIGHT FRACTION OF FUEL IN TOTAL FUELS AND OF OXIDANT IN TOTAL OXIDANTS









               THERMODYNAMIC EQUILIBRIUM PROPERTIES AT ASSIGNED

                           TEMPERATURE AND PRESSURE

 CASE =                

             REACTANT                    WT FRACTION      ENERGY      TEMP
                                          (SEE NOTE)     KJ/KG-MOL      K  
             H2                           1.0000000         0.000      0.000

 O/F=    0.00000  %FUEL=100.000000  R,EQ.RATIO= 0.000000  PHI,EQ.RATIO= 0.000000

 THERMODYNAMIC PROPERTIES

 P, BAR            250.00   250.00   250.00   250.00   250.00   250.00   250.00   250.00
 T, K             1110.00  1120.00  1130.00  1140.00  1150.00  1160.00  1170.00  1180.00
 RHO, KG/CU M    5.4607 0 5.4119 0 5.3640 0 5.3170 0 5.2708 0 5.2253 0 5.1807 0 5.1368 0
 H, KJ/KG         11916.8  12068.8  12220.9  12373.2  12525.8  12678.5  12831.5  12984.6
 U, KJ/KG         7338.67  7449.36  7560.24  7671.33  7782.62  7894.12  8005.83  8117.75
 G, KJ/KG        -56075.0 -56688.2 -57302.8 -57918.7 -58536.0 -59154.6 -59774.5 -60395.7
 S, KJ/(KG)(K)    61.2539  61.3902  61.5254  61.6596  61.7928  61.9251  62.0564  62.1867

 M, (1/n)           2.016    2.016    2.016    2.016    2.016    2.016    2.016    2.016
 (dLV/dLP)t      -0.99999 -0.99999 -0.99999 -0.99999 -0.99999 -0.99999 -0.99999 -0.99999
 (dLV/dLT)p        1.0000   1.0000   1.0000   1.0000   1.0000   1.0000   1.0000   1.0000
 Cp, KJ/(KG)(K)   15.1830  15.2029  15.2231  15.2435  15.2641  15.2848  15.3057  15.3268
 GAMMAs            1.3730   1.3723   1.3716   1.3710   1.3703   1.3696   1.3689   1.3682
 SON VEL,M/SEC     2507.1   2517.8   2528.4   2538.9   2549.4   2559.8   2570.2   2580.5

 TRANSPORT PROPERTIES (GASES ONLY)
   CONDUCTIVITY IN UNITS OF MILLIWATTS/(CM)(K)

 VISC,MILLIPOISE  0.22120  0.22258  0.22396  0.22534  0.22671  0.22808  0.22944  0.23080

  WITH EQUILIBRIUM REACTIONS

 Cp, KJ/(KG)(K)   15.1830  15.2029  15.2231  15.2435  15.2641  15.2848  15.3057  15.3268
 CONDUCTIVITY      4.8259   4.8614   4.8969   4.9324   4.9680   5.0036   5.0393   5.0750
 PRANDTL NUMBER    0.6959   0.6961   0.6962   0.6964   0.6966   0.6967   0.6969   0.6970

  WITH FROZEN REACTIONS

 Cp, KJ/(KG)(K)   15.1830  15.2029  15.2231  15.2435  15.2641  15.2848  15.3057  15.3268
 CONDUCTIVITY      4.8259   4.8614   4.8969   4.9324   4.9680   5.0036   5.0393   5.0750
 PRANDTL NUMBER    0.6959   0.6961   0.6962   0.6964   0.6966   0.6967   0.6969   0.6970

 MOLE FRACTIONS

 *H2              1.00000  1.00000  1.00000  1.00000  1.00000  1.00000  1.00000  1.00000

  * THERMODYNAMIC PROPERTIES FITTED TO 20000.K

 NOTE. WEIGHT FRACTION OF FUEL IN TOTAL FUELS AND OF OXIDANT IN TOTAL OXIDANTS









               THERMODYNAMIC EQUILIBRIUM PROPERTIES AT ASSIGNED

                           TEMPERATURE AND PRESSURE

 CASE =                

             REACTANT                    WT FRACTION      ENERGY      TEMP
                                          (SEE NOTE)     KJ/KG-MOL      K  
             H2                           1.0000000         0.000      0.000

 O/F=    0.00000  %FUEL=100.000000  R,EQ.RATIO= 0.000000  PHI,EQ.RATIO= 0.000000

 THERMODYNAMIC PROPERTIES

 P, BAR            250.00
 T, K             1190.00
 RHO, KG/CU M    5.0936 0
 H, KJ/KG         13138.0
 U, KJ/KG         8229.88
 G, KJ/KG        -61018.2
 S, KJ/(KG)(K)    62.3161

 M, (1/n)           2.016
 (dLV/dLP)t      -0.99999
 (dLV/dLT)p        1.0000
 Cp, KJ/(KG)(K)   15.3480
 GAMMAs            1.3675
 SON VEL,M/SEC     2590.7

 TRANSPORT PROPERTIES (GASES ONLY)
   CONDUCTIVITY IN UNITS OF MILLIWATTS/(CM)(K)

 VISC,MILLIPOISE  0.23215

  WITH EQUILIBRIUM REACTIONS

 Cp, KJ/(KG)(K)   15.3480
 CONDUCTIVITY      5.1107
 PRANDTL NUMBER    0.6972

  WITH FROZEN REACTIONS

 Cp, KJ/(KG)(K)   15.3480
 CONDUCTIVITY      5.1107
 PRANDTL NUMBER    0.6972

 MOLE FRACTIONS

 *H2              1.00000

  * THERMODYNAMIC PROPERTIES FITTED TO 20000.K

 NOTE. WEIGHT FRACTION OF FUEL IN TOTAL FUELS AND OF OXIDANT IN TOTAL OXIDANTS



  
