
 *******************************************************************************

         NASA-GLENN CHEMICAL EQUILIBRIUM PROGRAM CEA2, MAY 21, 2004
                   BY  BONNIE MCBRIDE AND SANFORD GORDON
      REFS: NASA RP-1311, PART I, 1994 AND NASA RP-1311, PART II, 1996

 *******************************************************************************



  prob tp ions
  p,bar= 12.0,13.2,14.8,16.5,18.0,20.0,22.5,25.0,28.0,31.0,35.0,39.0,44.0,49.0,54
 .0
  t,k= 2700,2710,2720,2730,2740,2750,2760,2770,2780,2790,2800,2810,2820,2830,2840
  
  reac
  na H2                wt%=100.0000
  
  output short
  output siunits
  output transport
  
 end





               THERMODYNAMIC EQUILIBRIUM PROPERTIES AT ASSIGNED

                           TEMPERATURE AND PRESSURE

 CASE =                

             REACTANT                    WT FRACTION      ENERGY      TEMP
                                          (SEE NOTE)     KJ/KG-MOL      K  
             H2                           1.0000000         0.000      0.000

 O/F=    0.00000  %FUEL=100.000000  R,EQ.RATIO= 0.000000  PHI,EQ.RATIO= 0.000000

 THERMODYNAMIC PROPERTIES

 P, BAR            12.000   12.000   12.000   12.000   12.000   12.000   12.000   12.000
 T, K             2700.00  2710.00  2720.00  2730.00  2740.00  2750.00  2760.00  2770.00
 RHO, KG/CU M    1.0688-1 1.0645-1 1.0603-1 1.0560-1 1.0518-1 1.0476-1 1.0434-1 1.0393-1
 H, KJ/KG         40417.4  40669.6  40924.2  41181.2  41440.7  41702.6  41967.1  42234.2
 U, KJ/KG         29189.7  29396.8  29606.2  29817.8  30031.8  30248.0  30466.7  30687.8
 G, KJ/KG       -200520.2-201412.4-202306.1-203200.8-204096.4-204993.0-205890.6-206789.1
 S, KJ/(KG)(K)    89.2361  89.3291  89.4229  89.5172  89.6121  89.7075  89.8035  89.9001

 M, (1/n)           1.999    1.999    1.998    1.998    1.997    1.996    1.995    1.995
 (dLV/dLP)t      -1.00407 -1.00423 -1.00439 -1.00455 -1.00472 -1.00490 -1.00508 -1.00526
 (dLV/dLT)p        1.0831   1.0860   1.0889   1.0919   1.0950   1.0982   1.1014   1.1047
 Cp, KJ/(KG)(K)   25.1133  25.3449  25.5813  25.8227  26.0691  26.3205  26.5771  26.8388
 GAMMAs            1.2349   1.2336   1.2323   1.2310   1.2297   1.2284   1.2272   1.2259
 SON VEL,M/SEC     3723.5   3729.0   3734.5   3740.1   3745.6   3751.1   3756.7   3762.3

 TRANSPORT PROPERTIES (GASES ONLY)
   CONDUCTIVITY IN UNITS OF MILLIWATTS/(CM)(K)

 VISC,MILLIPOISE  0.42395  0.42531  0.42668  0.42806  0.42944  0.43082  0.43222  0.43361

  WITH EQUILIBRIUM REACTIONS

 Cp, KJ/(KG)(K)   25.1133  25.3449  25.5813  25.8227  26.0691  26.3205  26.5771  26.8388
 CONDUCTIVITY     19.1086  19.4304  19.7601  20.0973  20.4419  20.7941  21.1541  21.5218
 PRANDTL NUMBER    0.5572   0.5548   0.5524   0.5500   0.5477   0.5453   0.5430   0.5407

  WITH FROZEN REACTIONS

 Cp, KJ/(KG)(K)   18.0583  18.0715  18.0847  18.0979  18.1111  18.1242  18.1373  18.1503
 CONDUCTIVITY     10.8988  10.9425  10.9870  11.0318  11.0768  11.1219  11.1673  11.2129
 PRANDTL NUMBER    0.7024   0.7024   0.7023   0.7022   0.7022   0.7021   0.7020   0.7019

 MOLE FRACTIONS

 *H               0.01630  0.01692  0.01755  0.01821  0.01889  0.01959  0.02030  0.02104
 *H2              0.98370  0.98308  0.98245  0.98179  0.98111  0.98041  0.97970  0.97896

  * THERMODYNAMIC PROPERTIES FITTED TO 20000.K

 NOTE. WEIGHT FRACTION OF FUEL IN TOTAL FUELS AND OF OXIDANT IN TOTAL OXIDANTS









               THERMODYNAMIC EQUILIBRIUM PROPERTIES AT ASSIGNED

                           TEMPERATURE AND PRESSURE

 CASE =                

             REACTANT                    WT FRACTION      ENERGY      TEMP
                                          (SEE NOTE)     KJ/KG-MOL      K  
             H2                           1.0000000         0.000      0.000

 O/F=    0.00000  %FUEL=100.000000  R,EQ.RATIO= 0.000000  PHI,EQ.RATIO= 0.000000

 THERMODYNAMIC PROPERTIES

 P, BAR            12.000   12.000   12.000   12.000   12.000   12.000   12.000   13.200
 T, K             2780.00  2790.00  2800.00  2810.00  2820.00  2830.00  2840.00  2700.00
 RHO, KG/CU M    1.0352-1 1.0310-1 1.0269-1 1.0229-1 1.0188-1 1.0147-1 1.0107-1 1.1761-1
 H, KJ/KG         42503.9  42776.3  43051.5  43329.4  43610.3  43894.0  44180.7  40330.4
 U, KJ/KG         30911.4  31137.5  31366.2  31597.6  31831.6  32068.4  32307.9  29107.0
 G, KJ/KG       -207688.6-208589.1-209490.5-210392.9-211296.4-212200.8-213106.2-199449.6
 S, KJ/(KG)(K)    89.9973  90.0951  90.1936  90.2927  90.3924  90.4929  90.5940  88.8074

 M, (1/n)           1.994    1.993    1.992    1.991    1.991    1.990    1.989    2.000
 (dLV/dLP)t      -1.00545 -1.00564 -1.00584 -1.00605 -1.00626 -1.00648 -1.00670 -1.00389
 (dLV/dLT)p        1.1081   1.1116   1.1151   1.1188   1.1225   1.1263   1.1302   1.0793
 Cp, KJ/(KG)(K)   27.1058  27.3780  27.6556  27.9385  28.2270  28.5209  28.8205  24.7840
 GAMMAs            1.2247   1.2234   1.2222   1.2210   1.2198   1.2186   1.2174   1.2368
 SON VEL,M/SEC     3767.9   3773.5   3779.1   3784.8   3790.5   3796.1   3801.9   3725.8

 TRANSPORT PROPERTIES (GASES ONLY)
   CONDUCTIVITY IN UNITS OF MILLIWATTS/(CM)(K)

 VISC,MILLIPOISE  0.43502  0.43642  0.43784  0.43926  0.44069  0.44212  0.44356  0.42377

  WITH EQUILIBRIUM REACTIONS

 Cp, KJ/(KG)(K)   27.1058  27.3780  27.6556  27.9385  28.2270  28.5209  28.8205  24.7840
 CONDUCTIVITY     21.8975  22.2812  22.6731  23.0732  23.4816  23.8986  24.3240  18.7222
 PRANDTL NUMBER    0.5385   0.5363   0.5341   0.5319   0.5297   0.5276   0.5256   0.5610

  WITH FROZEN REACTIONS

 Cp, KJ/(KG)(K)   18.1633  18.1763  18.1893  18.2022  18.2152  18.2280  18.2409  18.0573
 CONDUCTIVITY     11.2588  11.3048  11.3511  11.3976  11.4444  11.4914  11.5386  10.8914
 PRANDTL NUMBER    0.7018   0.7017   0.7016   0.7015   0.7014   0.7013   0.7012   0.7026

 MOLE FRACTIONS

 *H               0.02180  0.02258  0.02338  0.02420  0.02505  0.02592  0.02681  0.01554
 *H2              0.97820  0.97742  0.97662  0.97580  0.97495  0.97408  0.97319  0.98446

  * THERMODYNAMIC PROPERTIES FITTED TO 20000.K

 NOTE. WEIGHT FRACTION OF FUEL IN TOTAL FUELS AND OF OXIDANT IN TOTAL OXIDANTS









               THERMODYNAMIC EQUILIBRIUM PROPERTIES AT ASSIGNED

                           TEMPERATURE AND PRESSURE

 CASE =                

             REACTANT                    WT FRACTION      ENERGY      TEMP
                                          (SEE NOTE)     KJ/KG-MOL      K  
             H2                           1.0000000         0.000      0.000

 O/F=    0.00000  %FUEL=100.000000  R,EQ.RATIO= 0.000000  PHI,EQ.RATIO= 0.000000

 THERMODYNAMIC PROPERTIES

 P, BAR            13.200   13.200   13.200   13.200   13.200   13.200   13.200   13.200
 T, K             2710.00  2720.00  2730.00  2740.00  2750.00  2760.00  2770.00  2780.00
 RHO, KG/CU M    1.1714-1 1.1668-1 1.1621-1 1.1575-1 1.1529-1 1.1483-1 1.1438-1 1.1392-1
 H, KJ/KG         40579.4  40830.5  41084.0  41339.8  41598.0  41858.6  42121.6  42387.3
 U, KJ/KG         29311.0  29517.2  29725.4  29935.9  30148.6  30363.6  30580.9  30800.7
 G, KJ/KG       -200338.1-201227.6-202118.0-203009.3-203901.5-204794.7-205688.9-206584.0
 S, KJ/(KG)(K)    88.8994  88.9920  89.0850  89.1785  89.2726  89.3671  89.4623  89.5580

 M, (1/n)           2.000    1.999    1.998    1.998    1.997    1.996    1.996    1.995
 (dLV/dLP)t      -1.00403 -1.00419 -1.00434 -1.00450 -1.00467 -1.00484 -1.00502 -1.00520
 (dLV/dLT)p        1.0820   1.0848   1.0877   1.0906   1.0936   1.0967   1.0999   1.1031
 Cp, KJ/(KG)(K)   25.0054  25.2315  25.4622  25.6977  25.9381  26.1832  26.4334  26.6885
 GAMMAs            1.2356   1.2343   1.2330   1.2317   1.2305   1.2292   1.2280   1.2267
 SON VEL,M/SEC     3731.3   3736.8   3742.3   3747.9   3753.4   3759.0   3764.5   3770.1

 TRANSPORT PROPERTIES (GASES ONLY)
   CONDUCTIVITY IN UNITS OF MILLIWATTS/(CM)(K)

 VISC,MILLIPOISE  0.42513  0.42649  0.42786  0.42923  0.43061  0.43199  0.43338  0.43477

  WITH EQUILIBRIUM REACTIONS

 Cp, KJ/(KG)(K)   25.0054  25.2315  25.4622  25.6977  25.9381  26.1832  26.4334  26.6885
 CONDUCTIVITY     19.0316  19.3481  19.6716  20.0023  20.3402  20.6855  21.0383  21.3987
 PRANDTL NUMBER    0.5586   0.5562   0.5538   0.5514   0.5491   0.5468   0.5445   0.5423

  WITH FROZEN REACTIONS

 Cp, KJ/(KG)(K)   18.0705  18.0837  18.0968  18.1099  18.1230  18.1361  18.1491  18.1621
 CONDUCTIVITY     10.9355  10.9798  11.0242  11.0689  11.1138  11.1589  11.2042  11.2497
 PRANDTL NUMBER    0.7025   0.7024   0.7023   0.7023   0.7022   0.7021   0.7020   0.7019

 MOLE FRACTIONS

 *H               0.01613  0.01674  0.01737  0.01802  0.01868  0.01937  0.02007  0.02080
 *H2              0.98387  0.98326  0.98263  0.98198  0.98132  0.98063  0.97993  0.97920

  * THERMODYNAMIC PROPERTIES FITTED TO 20000.K

 NOTE. WEIGHT FRACTION OF FUEL IN TOTAL FUELS AND OF OXIDANT IN TOTAL OXIDANTS









               THERMODYNAMIC EQUILIBRIUM PROPERTIES AT ASSIGNED

                           TEMPERATURE AND PRESSURE

 CASE =                

             REACTANT                    WT FRACTION      ENERGY      TEMP
                                          (SEE NOTE)     KJ/KG-MOL      K  
             H2                           1.0000000         0.000      0.000

 O/F=    0.00000  %FUEL=100.000000  R,EQ.RATIO= 0.000000  PHI,EQ.RATIO= 0.000000

 THERMODYNAMIC PROPERTIES

 P, BAR            13.200   13.200   13.200   13.200   13.200   13.200   14.800   14.800
 T, K             2790.00  2800.00  2810.00  2820.00  2830.00  2840.00  2700.00  2710.00
 RHO, KG/CU M    1.1347-1 1.1302-1 1.1258-1 1.1213-1 1.1169-1 1.1125-1 1.3192-1 1.3140-1
 H, KJ/KG         42655.4  42926.2  43199.7  43475.9  43754.9  44036.8  40231.4  40476.6
 U, KJ/KG         31022.8  31247.4  31474.5  31704.2  31936.5  32171.4  29012.9  29213.3
 G, KJ/KG       -207480.1-208377.1-209275.1-210174.1-211074.0-211975.0-198165.8-199049.2
 S, KJ/(KG)(K)    89.6543  89.7512  89.8487  89.9468  90.0456  90.1450  88.2953  88.3859

 M, (1/n)           1.994    1.993    1.993    1.992    1.991    1.990    2.001    2.001
 (dLV/dLP)t      -1.00538 -1.00558 -1.00577 -1.00597 -1.00618 -1.00639 -1.00367 -1.00381
 (dLV/dLT)p        1.1064   1.1098   1.1133   1.1169   1.1205   1.1243   1.0749   1.0775
 Cp, KJ/(KG)(K)   26.9486  27.2139  27.4842  27.7598  28.0407  28.3268  24.4090  24.6188
 GAMMAs            1.2255   1.2243   1.2231   1.2219   1.2207   1.2196   1.2392   1.2379
 SON VEL,M/SEC     3775.7   3781.3   3787.0   3792.6   3798.3   3804.0   3728.5   3734.0

 TRANSPORT PROPERTIES (GASES ONLY)
   CONDUCTIVITY IN UNITS OF MILLIWATTS/(CM)(K)

 VISC,MILLIPOISE  0.43617  0.43758  0.43899  0.44041  0.44183  0.44326  0.42357  0.42491

  WITH EQUILIBRIUM REACTIONS

 Cp, KJ/(KG)(K)   26.9486  27.2139  27.4842  27.7598  28.0407  28.3268  24.4090  24.6188
 CONDUCTIVITY     21.7667  22.1425  22.5263  22.9180  23.3178  23.7258  18.2823  18.5770
 PRANDTL NUMBER    0.5400   0.5378   0.5356   0.5335   0.5313   0.5292   0.5655   0.5631

  WITH FROZEN REACTIONS

 Cp, KJ/(KG)(K)   18.1750  18.1879  18.2008  18.2137  18.2266  18.2394  18.0562  18.0694
 CONDUCTIVITY     11.2954  11.3414  11.3876  11.4340  11.4806  11.5275  10.8837  10.9275
 PRANDTL NUMBER    0.7018   0.7017   0.7016   0.7015   0.7014   0.7014   0.7027   0.7026

 MOLE FRACTIONS

 *H               0.02154  0.02230  0.02309  0.02390  0.02473  0.02558  0.01469  0.01524
 *H2              0.97846  0.97770  0.97691  0.97610  0.97527  0.97442  0.98531  0.98476

  * THERMODYNAMIC PROPERTIES FITTED TO 20000.K

 NOTE. WEIGHT FRACTION OF FUEL IN TOTAL FUELS AND OF OXIDANT IN TOTAL OXIDANTS









               THERMODYNAMIC EQUILIBRIUM PROPERTIES AT ASSIGNED

                           TEMPERATURE AND PRESSURE

 CASE =                

             REACTANT                    WT FRACTION      ENERGY      TEMP
                                          (SEE NOTE)     KJ/KG-MOL      K  
             H2                           1.0000000         0.000      0.000

 O/F=    0.00000  %FUEL=100.000000  R,EQ.RATIO= 0.000000  PHI,EQ.RATIO= 0.000000

 THERMODYNAMIC PROPERTIES

 P, BAR            14.800   14.800   14.800   14.800   14.800   14.800   14.800   14.800
 T, K             2720.00  2730.00  2740.00  2750.00  2760.00  2770.00  2780.00  2790.00
 RHO, KG/CU M    1.3088-1 1.3036-1 1.2985-1 1.2933-1 1.2882-1 1.2831-1 1.2781-1 1.2730-1
 H, KJ/KG         40723.8  40973.3  41224.9  41478.8  41734.9  41993.5  42254.4  42517.7
 U, KJ/KG         29415.7  29620.2  29826.7  30035.4  30246.2  30459.2  30674.5  30892.1
 G, KJ/KG       -199933.5-200818.8-201704.9-202592.0-203480.0-204368.9-205258.8-206149.6
 S, KJ/(KG)(K)    88.4770  88.5685  88.6605  88.7530  88.8460  88.9395  89.0335  89.1281

 M, (1/n)           2.000    1.999    1.999    1.998    1.997    1.997    1.996    1.995
 (dLV/dLP)t      -1.00395 -1.00410 -1.00426 -1.00441 -1.00457 -1.00474 -1.00491 -1.00509
 (dLV/dLT)p        1.0801   1.0828   1.0856   1.0885   1.0914   1.0944   1.0974   1.1006
 Cp, KJ/(KG)(K)   24.8329  25.0516  25.2747  25.5023  25.7346  25.9715  26.2131  26.4595
 GAMMAs            1.2367   1.2354   1.2341   1.2329   1.2317   1.2304   1.2292   1.2280
 SON VEL,M/SEC     3739.5   3745.1   3750.6   3756.1   3761.7   3767.3   3772.8   3778.4

 TRANSPORT PROPERTIES (GASES ONLY)
   CONDUCTIVITY IN UNITS OF MILLIWATTS/(CM)(K)

 VISC,MILLIPOISE  0.42627  0.42763  0.42899  0.43036  0.43173  0.43311  0.43450  0.43589

  WITH EQUILIBRIUM REACTIONS

 Cp, KJ/(KG)(K)   24.8329  25.0516  25.2747  25.5023  25.7346  25.9715  26.2131  26.4595
 CONDUCTIVITY     18.8783  19.1862  19.5009  19.8226  20.1512  20.4868  20.8297  21.1799
 PRANDTL NUMBER    0.5607   0.5584   0.5560   0.5537   0.5514   0.5491   0.5468   0.5445

  WITH FROZEN REACTIONS

 Cp, KJ/(KG)(K)   18.0825  18.0956  18.1087  18.1217  18.1347  18.1477  18.1606  18.1735
 CONDUCTIVITY     10.9714  11.0156  11.0600  11.1045  11.1492  11.1942  11.2393  11.2847
 PRANDTL NUMBER    0.7026   0.7025   0.7024   0.7023   0.7022   0.7021   0.7021   0.7020

 MOLE FRACTIONS

 *H               0.01582  0.01641  0.01702  0.01765  0.01830  0.01897  0.01965  0.02035
 *H2              0.98418  0.98359  0.98298  0.98235  0.98170  0.98103  0.98035  0.97965

  * THERMODYNAMIC PROPERTIES FITTED TO 20000.K

 NOTE. WEIGHT FRACTION OF FUEL IN TOTAL FUELS AND OF OXIDANT IN TOTAL OXIDANTS









               THERMODYNAMIC EQUILIBRIUM PROPERTIES AT ASSIGNED

                           TEMPERATURE AND PRESSURE

 CASE =                

             REACTANT                    WT FRACTION      ENERGY      TEMP
                                          (SEE NOTE)     KJ/KG-MOL      K  
             H2                           1.0000000         0.000      0.000

 O/F=    0.00000  %FUEL=100.000000  R,EQ.RATIO= 0.000000  PHI,EQ.RATIO= 0.000000

 THERMODYNAMIC PROPERTIES

 P, BAR            14.800   14.800   14.800   14.800   14.800   16.500   16.500   16.500
 T, K             2800.00  2810.00  2820.00  2830.00  2840.00  2700.00  2710.00  2720.00
 RHO, KG/CU M    1.2680-1 1.2630-1 1.2581-1 1.2531-1 1.2482-1 1.4714-1 1.4655-1 1.4597-1
 H, KJ/KG         42783.6  43052.0  43322.9  43596.5  43872.8  40142.5  40384.2  40627.9
 U, KJ/KG         31112.0  31334.3  31559.0  31786.2  32015.9  28928.3  29125.5  29324.6
 G, KJ/KG       -207041.3-207934.0-208827.7-209722.3-210617.9-196946.3-197824.8-198704.2
 S, KJ/(KG)(K)    89.2232  89.3189  89.4151  89.5120  89.6094  87.8107  87.9000  87.9898

 M, (1/n)           1.995    1.994    1.993    1.992    1.992    2.002    2.001    2.001
 (dLV/dLP)t      -1.00527 -1.00545 -1.00565 -1.00584 -1.00604 -1.00348 -1.00361 -1.00375
 (dLV/dLT)p        1.1038   1.1071   1.1105   1.1139   1.1174   1.0710   1.0734   1.0759
 Cp, KJ/(KG)(K)   26.7106  26.9667  27.2276  27.4936  27.7645  24.0719  24.2712  24.4747
 GAMMAs            1.2268   1.2256   1.2244   1.2232   1.2221   1.2414   1.2401   1.2389
 SON VEL,M/SEC     3784.0   3789.6   3795.3   3800.9   3806.6   3731.1   3736.6   3742.1

 TRANSPORT PROPERTIES (GASES ONLY)
   CONDUCTIVITY IN UNITS OF MILLIWATTS/(CM)(K)

 VISC,MILLIPOISE  0.43728  0.43868  0.44009  0.44150  0.44292  0.42338  0.42472  0.42607

  WITH EQUILIBRIUM REACTIONS

 Cp, KJ/(KG)(K)   26.7106  26.9667  27.2276  27.4936  27.7645  24.0719  24.2712  24.4747
 CONDUCTIVITY     21.5374  21.9024  22.2750  22.6553  23.0433  17.8867  18.1680  18.4556
 PRANDTL NUMBER    0.5423   0.5401   0.5379   0.5358   0.5337   0.5698   0.5674   0.5650

  WITH FROZEN REACTIONS

 Cp, KJ/(KG)(K)   18.1864  18.1993  18.2121  18.2249  18.2376  18.0552  18.0683  18.0814
 CONDUCTIVITY     11.3303  11.3760  11.4220  11.4683  11.5147  10.8768  10.9202  10.9639
 PRANDTL NUMBER    0.7019   0.7018   0.7017   0.7016   0.7015   0.7028   0.7027   0.7027

 MOLE FRACTIONS

 *H               0.02108  0.02182  0.02259  0.02337  0.02418  0.01391  0.01444  0.01499
 *H2              0.97892  0.97818  0.97741  0.97663  0.97582  0.98609  0.98556  0.98501

  * THERMODYNAMIC PROPERTIES FITTED TO 20000.K

 NOTE. WEIGHT FRACTION OF FUEL IN TOTAL FUELS AND OF OXIDANT IN TOTAL OXIDANTS









               THERMODYNAMIC EQUILIBRIUM PROPERTIES AT ASSIGNED

                           TEMPERATURE AND PRESSURE

 CASE =                

             REACTANT                    WT FRACTION      ENERGY      TEMP
                                          (SEE NOTE)     KJ/KG-MOL      K  
             H2                           1.0000000         0.000      0.000

 O/F=    0.00000  %FUEL=100.000000  R,EQ.RATIO= 0.000000  PHI,EQ.RATIO= 0.000000

 THERMODYNAMIC PROPERTIES

 P, BAR            16.500   16.500   16.500   16.500   16.500   16.500   16.500   16.500
 T, K             2730.00  2740.00  2750.00  2760.00  2770.00  2780.00  2790.00  2800.00
 RHO, KG/CU M    1.4540-1 1.4483-1 1.4426-1 1.4369-1 1.4312-1 1.4256-1 1.4200-1 1.4145-1
 H, KJ/KG         40873.7  41121.6  41371.6  41623.8  41878.3  42135.0  42394.0  42655.4
 U, KJ/KG         29525.6  29728.6  29933.6  30140.6  30349.8  30561.1  30774.6  30990.3
 G, KJ/KG       -199584.6-200465.8-201348.0-202231.1-203115.0-204000.0-204885.8-205772.6
 S, KJ/(KG)(K)    88.0800  88.1706  88.2617  88.3532  88.4452  88.5377  88.6307  88.7243

 M, (1/n)           2.000    2.000    1.999    1.998    1.998    1.997    1.996    1.996
 (dLV/dLP)t      -1.00389 -1.00403 -1.00418 -1.00433 -1.00449 -1.00465 -1.00482 -1.00499
 (dLV/dLT)p        1.0785   1.0811   1.0838   1.0866   1.0894   1.0923   1.0953   1.0984
 Cp, KJ/(KG)(K)   24.6824  24.8944  25.1107  25.3313  25.5563  25.7858  26.0198  26.2583
 GAMMAs            1.2376   1.2364   1.2352   1.2339   1.2327   1.2315   1.2303   1.2291
 SON VEL,M/SEC     3747.6   3753.2   3758.7   3764.3   3769.8   3775.4   3781.0   3786.5

 TRANSPORT PROPERTIES (GASES ONLY)
   CONDUCTIVITY IN UNITS OF MILLIWATTS/(CM)(K)

 VISC,MILLIPOISE  0.42742  0.42878  0.43014  0.43150  0.43287  0.43425  0.43563  0.43701

  WITH EQUILIBRIUM REACTIONS

 Cp, KJ/(KG)(K)   24.6824  24.8944  25.1107  25.3313  25.5563  25.7858  26.0198  26.2583
 CONDUCTIVITY     18.7495  19.0499  19.3568  19.6703  19.9906  20.3177  20.6518  20.9928
 PRANDTL NUMBER    0.5627   0.5603   0.5580   0.5557   0.5534   0.5511   0.5489   0.5466

  WITH FROZEN REACTIONS

 Cp, KJ/(KG)(K)   18.0945  18.1075  18.1205  18.1335  18.1464  18.1593  18.1722  18.1850
 CONDUCTIVITY     11.0078  11.0519  11.0961  11.1405  11.1852  11.2300  11.2750  11.3202
 PRANDTL NUMBER    0.7026   0.7025   0.7024   0.7024   0.7023   0.7022   0.7021   0.7020

 MOLE FRACTIONS

 *H               0.01555  0.01613  0.01673  0.01734  0.01797  0.01862  0.01929  0.01997
 *H2              0.98445  0.98387  0.98327  0.98266  0.98203  0.98138  0.98071  0.98003

  * THERMODYNAMIC PROPERTIES FITTED TO 20000.K

 NOTE. WEIGHT FRACTION OF FUEL IN TOTAL FUELS AND OF OXIDANT IN TOTAL OXIDANTS









               THERMODYNAMIC EQUILIBRIUM PROPERTIES AT ASSIGNED

                           TEMPERATURE AND PRESSURE

 CASE =                

             REACTANT                    WT FRACTION      ENERGY      TEMP
                                          (SEE NOTE)     KJ/KG-MOL      K  
             H2                           1.0000000         0.000      0.000

 O/F=    0.00000  %FUEL=100.000000  R,EQ.RATIO= 0.000000  PHI,EQ.RATIO= 0.000000

 THERMODYNAMIC PROPERTIES

 P, BAR            16.500   16.500   16.500   16.500   18.000   18.000   18.000   18.000
 T, K             2810.00  2820.00  2830.00  2840.00  2700.00  2710.00  2720.00  2730.00
 RHO, KG/CU M    1.4089-1 1.4034-1 1.3979-1 1.3925-1 1.6056-1 1.5993-1 1.5930-1 1.5867-1
 H, KJ/KG         42919.2  43185.4  43454.2  43725.5  40074.7  40313.8  40554.9  40797.9
 U, KJ/KG         31208.2  31428.5  31651.1  31876.1  28863.9  29058.6  29255.1  29453.5
 G, KJ/KG       -206660.3-207548.9-208438.6-209329.1-195970.6-196845.3-197720.9-198597.3
 S, KJ/(KG)(K)    88.8183  88.9129  89.0080  89.1037  87.4242  87.5126  87.6014  87.6905

 M, (1/n)           1.995    1.994    1.994    1.993    2.002    2.002    2.001    2.001
 (dLV/dLP)t      -1.00517 -1.00535 -1.00554 -1.00573 -1.00333 -1.00346 -1.00359 -1.00372
 (dLV/dLT)p        1.1015   1.1047   1.1079   1.1113   1.0680   1.0703   1.0727   1.0752
 Cp, KJ/(KG)(K)   26.5015  26.7493  27.0018  27.2590  23.8150  24.0064  24.2018  24.4012
 GAMMAs            1.2279   1.2268   1.2256   1.2244   1.2431   1.2418   1.2406   1.2394
 SON VEL,M/SEC     3792.1   3797.8   3803.4   3809.0   3733.1   3738.6   3744.1   3749.7

 TRANSPORT PROPERTIES (GASES ONLY)
   CONDUCTIVITY IN UNITS OF MILLIWATTS/(CM)(K)

 VISC,MILLIPOISE  0.43840  0.43980  0.44120  0.44261  0.42324  0.42458  0.42592  0.42726

  WITH EQUILIBRIUM REACTIONS

 Cp, KJ/(KG)(K)   26.5015  26.7493  27.0018  27.2590  23.8150  24.0064  24.2018  24.4012
 CONDUCTIVITY     21.3409  21.6963  22.0589  22.4289  17.5850  17.8561  18.1332  18.4165
 PRANDTL NUMBER    0.5444   0.5422   0.5401   0.5379   0.5732   0.5708   0.5685   0.5661

  WITH FROZEN REACTIONS

 Cp, KJ/(KG)(K)   18.1978  18.2106  18.2234  18.2361  18.0544  18.0675  18.0806  18.0936
 CONDUCTIVITY     11.3656  11.4113  11.4571  11.5032  10.8714  10.9147  10.9582  11.0019
 PRANDTL NUMBER    0.7019   0.7019   0.7018   0.7017   0.7029   0.7028   0.7027   0.7027

 MOLE FRACTIONS

 *H               0.02068  0.02140  0.02215  0.02291  0.01333  0.01383  0.01436  0.01490
 *H2              0.97932  0.97860  0.97785  0.97709  0.98667  0.98617  0.98564  0.98510

  * THERMODYNAMIC PROPERTIES FITTED TO 20000.K

 NOTE. WEIGHT FRACTION OF FUEL IN TOTAL FUELS AND OF OXIDANT IN TOTAL OXIDANTS









               THERMODYNAMIC EQUILIBRIUM PROPERTIES AT ASSIGNED

                           TEMPERATURE AND PRESSURE

 CASE =                

             REACTANT                    WT FRACTION      ENERGY      TEMP
                                          (SEE NOTE)     KJ/KG-MOL      K  
             H2                           1.0000000         0.000      0.000

 O/F=    0.00000  %FUEL=100.000000  R,EQ.RATIO= 0.000000  PHI,EQ.RATIO= 0.000000

 THERMODYNAMIC PROPERTIES

 P, BAR            18.000   18.000   18.000   18.000   18.000   18.000   18.000   18.000
 T, K             2740.00  2750.00  2760.00  2770.00  2780.00  2790.00  2800.00  2810.00
 RHO, KG/CU M    1.5805-1 1.5743-1 1.5681-1 1.5619-1 1.5558-1 1.5498-1 1.5437-1 1.5377-1
 H, KJ/KG         41042.9  41290.0  41539.2  41790.5  42044.0  42299.7  42557.7  42818.0
 U, KJ/KG         29653.8  29856.0  30060.2  30266.4  30474.7  30685.0  30897.5  31112.2
 G, KJ/KG       -199474.7-200352.9-201232.1-202112.1-202993.1-203875.0-204757.8-205641.5
 S, KJ/(KG)(K)    87.7801  87.8701  87.9606  88.0515  88.1428  88.2347  88.3270  88.4198

 M, (1/n)           2.000    2.000    1.999    1.999    1.998    1.997    1.997    1.996
 (dLV/dLP)t      -1.00386 -1.00400 -1.00415 -1.00430 -1.00446 -1.00462 -1.00478 -1.00495
 (dLV/dLT)p        1.0777   1.0803   1.0829   1.0857   1.0884   1.0913   1.0942   1.0972
 Cp, KJ/(KG)(K)   24.6046  24.8122  25.0240  25.2400  25.4602  25.6848  25.9137  26.1470
 GAMMAs            1.2382   1.2369   1.2357   1.2345   1.2333   1.2321   1.2310   1.2298
 SON VEL,M/SEC     3755.2   3760.7   3766.3   3771.8   3777.4   3783.0   3788.6   3794.2

 TRANSPORT PROPERTIES (GASES ONLY)
   CONDUCTIVITY IN UNITS OF MILLIWATTS/(CM)(K)

 VISC,MILLIPOISE  0.42861  0.42997  0.43132  0.43269  0.43405  0.43543  0.43681  0.43819

  WITH EQUILIBRIUM REACTIONS

 Cp, KJ/(KG)(K)   24.6046  24.8122  25.0240  25.2400  25.4602  25.6848  25.9137  26.1470
 CONDUCTIVITY     18.7059  19.0016  19.3036  19.6122  19.9272  20.2489  20.5774  20.9126
 PRANDTL NUMBER    0.5638   0.5614   0.5591   0.5568   0.5546   0.5523   0.5501   0.5479

  WITH FROZEN REACTIONS

 Cp, KJ/(KG)(K)   18.1066  18.1196  18.1325  18.1454  18.1583  18.1711  18.1840  18.1967
 CONDUCTIVITY     11.0457  11.0897  11.1339  11.1782  11.2228  11.2676  11.3125  11.3576
 PRANDTL NUMBER    0.7026   0.7025   0.7025   0.7024   0.7023   0.7022   0.7021   0.7020

 MOLE FRACTIONS

 *H               0.01545  0.01602  0.01661  0.01721  0.01783  0.01847  0.01913  0.01981
 *H2              0.98455  0.98398  0.98339  0.98279  0.98217  0.98153  0.98087  0.98019

  * THERMODYNAMIC PROPERTIES FITTED TO 20000.K

 NOTE. WEIGHT FRACTION OF FUEL IN TOTAL FUELS AND OF OXIDANT IN TOTAL OXIDANTS









               THERMODYNAMIC EQUILIBRIUM PROPERTIES AT ASSIGNED

                           TEMPERATURE AND PRESSURE

 CASE =                

             REACTANT                    WT FRACTION      ENERGY      TEMP
                                          (SEE NOTE)     KJ/KG-MOL      K  
             H2                           1.0000000         0.000      0.000

 O/F=    0.00000  %FUEL=100.000000  R,EQ.RATIO= 0.000000  PHI,EQ.RATIO= 0.000000

 THERMODYNAMIC PROPERTIES

 P, BAR            18.000   18.000   18.000   20.000   20.000   20.000   20.000   20.000
 T, K             2820.00  2830.00  2840.00  2700.00  2710.00  2720.00  2730.00  2740.00
 RHO, KG/CU M    1.5317-1 1.5257-1 1.5198-1 1.7846-1 1.7776-1 1.7706-1 1.7637-1 1.7568-1
 H, KJ/KG         43080.6  43345.7  43613.2  39996.5  40232.6  40470.5  40710.3  40952.1
 U, KJ/KG         31329.1  31548.2  31769.6  28789.5  28981.3  29174.9  29370.3  29567.5
 G, KJ/KG       -206526.2-207411.8-208298.3-194789.7-195659.6-196530.5-197402.3-198274.9
 S, KJ/(KG)(K)    88.5131  88.6069  88.7012  86.9578  87.0451  87.1327  87.2207  87.3091

 M, (1/n)           1.995    1.994    1.994    2.003    2.003    2.002    2.002    2.001
 (dLV/dLP)t      -1.00512 -1.00530 -1.00549 -1.00316 -1.00328 -1.00341 -1.00353 -1.00367
 (dLV/dLT)p        1.1003   1.1034   1.1066   1.0645   1.0667   1.0690   1.0713   1.0737
 Cp, KJ/(KG)(K)   26.3848  26.6270  26.8739  23.5185  23.7007  23.8867  24.0766  24.2702
 GAMMAs            1.2286   1.2275   1.2263   1.2451   1.2439   1.2427   1.2415   1.2403
 SON VEL,M/SEC     3799.8   3805.4   3811.0   3735.4   3741.0   3746.5   3752.1   3757.6

 TRANSPORT PROPERTIES (GASES ONLY)
   CONDUCTIVITY IN UNITS OF MILLIWATTS/(CM)(K)

 VISC,MILLIPOISE  0.43958  0.44097  0.44237  0.42308  0.42441  0.42574  0.42708  0.42842

  WITH EQUILIBRIUM REACTIONS

 Cp, KJ/(KG)(K)   26.3848  26.6270  26.8739  23.5185  23.7007  23.8867  24.0766  24.2702
 CONDUCTIVITY     21.2548  21.6040  21.9602  17.2365  17.4959  17.7610  18.0318  18.3086
 PRANDTL NUMBER    0.5457   0.5435   0.5414   0.5773   0.5749   0.5726   0.5702   0.5679

  WITH FROZEN REACTIONS

 Cp, KJ/(KG)(K)   18.2095  18.2222  18.2349  18.0535  18.0666  18.0796  18.0926  18.1056
 CONDUCTIVITY     11.4030  11.4486  11.4943  10.8653  10.9083  10.9516  10.9950  11.0385
 PRANDTL NUMBER    0.7020   0.7019   0.7018   0.7030   0.7029   0.7028   0.7028   0.7027

 MOLE FRACTIONS

 *H               0.02050  0.02122  0.02195  0.01265  0.01313  0.01362  0.01414  0.01466
 *H2              0.97950  0.97878  0.97805  0.98735  0.98687  0.98638  0.98586  0.98534

  * THERMODYNAMIC PROPERTIES FITTED TO 20000.K

 NOTE. WEIGHT FRACTION OF FUEL IN TOTAL FUELS AND OF OXIDANT IN TOTAL OXIDANTS









               THERMODYNAMIC EQUILIBRIUM PROPERTIES AT ASSIGNED

                           TEMPERATURE AND PRESSURE

 CASE =                

             REACTANT                    WT FRACTION      ENERGY      TEMP
                                          (SEE NOTE)     KJ/KG-MOL      K  
             H2                           1.0000000         0.000      0.000

 O/F=    0.00000  %FUEL=100.000000  R,EQ.RATIO= 0.000000  PHI,EQ.RATIO= 0.000000

 THERMODYNAMIC PROPERTIES

 P, BAR            20.000   20.000   20.000   20.000   20.000   20.000   20.000   20.000
 T, K             2750.00  2760.00  2770.00  2780.00  2790.00  2800.00  2810.00  2820.00
 RHO, KG/CU M    1.7499-1 1.7431-1 1.7363-1 1.7295-1 1.7228-1 1.7161-1 1.7094-1 1.7028-1
 H, KJ/KG         41195.8  41441.4  41689.2  41938.9  42190.9  42444.9  42701.2  42959.7
 U, KJ/KG         29766.5  29967.4  30170.2  30374.9  30581.7  30790.5  31001.3  31214.3
 G, KJ/KG       -199148.5-200022.9-200898.2-201774.4-202651.6-203529.6-204408.5-205288.4
 S, KJ/(KG)(K)    87.3979  87.4871  87.5767  87.6667  87.7571  87.8480  87.9394  88.0312

 M, (1/n)           2.001    2.000    1.999    1.999    1.998    1.998    1.997    1.996
 (dLV/dLP)t      -1.00380 -1.00394 -1.00408 -1.00423 -1.00438 -1.00454 -1.00470 -1.00486
 (dLV/dLT)p        1.0762   1.0787   1.0813   1.0839   1.0867   1.0894   1.0923   1.0952
 Cp, KJ/(KG)(K)   24.4678  24.6693  24.8749  25.0844  25.2981  25.5159  25.7379  25.9641
 GAMMAs            1.2391   1.2379   1.2367   1.2355   1.2343   1.2331   1.2320   1.2308
 SON VEL,M/SEC     3763.2   3768.7   3774.3   3779.8   3785.4   3791.0   3796.6   3802.2

 TRANSPORT PROPERTIES (GASES ONLY)
   CONDUCTIVITY IN UNITS OF MILLIWATTS/(CM)(K)

 VISC,MILLIPOISE  0.42977  0.43112  0.43247  0.43383  0.43520  0.43657  0.43794  0.43932

  WITH EQUILIBRIUM REACTIONS

 Cp, KJ/(KG)(K)   24.4678  24.6693  24.8749  25.0844  25.2981  25.5159  25.7379  25.9641
 CONDUCTIVITY     18.5913  18.8801  19.1750  19.4761  19.7836  20.0975  20.4178  20.7448
 PRANDTL NUMBER    0.5656   0.5633   0.5610   0.5588   0.5565   0.5543   0.5521   0.5499

  WITH FROZEN REACTIONS

 Cp, KJ/(KG)(K)   18.1186  18.1315  18.1443  18.1572  18.1700  18.1827  18.1955  18.2082
 CONDUCTIVITY     11.0823  11.1262  11.1702  11.2145  11.2590  11.3036  11.3484  11.3934
 PRANDTL NUMBER    0.7026   0.7026   0.7025   0.7024   0.7023   0.7023   0.7022   0.7021

 MOLE FRACTIONS

 *H               0.01520  0.01576  0.01634  0.01693  0.01753  0.01816  0.01880  0.01946
 *H2              0.98480  0.98424  0.98366  0.98307  0.98247  0.98184  0.98120  0.98054

  * THERMODYNAMIC PROPERTIES FITTED TO 20000.K

 NOTE. WEIGHT FRACTION OF FUEL IN TOTAL FUELS AND OF OXIDANT IN TOTAL OXIDANTS









               THERMODYNAMIC EQUILIBRIUM PROPERTIES AT ASSIGNED

                           TEMPERATURE AND PRESSURE

 CASE =                

             REACTANT                    WT FRACTION      ENERGY      TEMP
                                          (SEE NOTE)     KJ/KG-MOL      K  
             H2                           1.0000000         0.000      0.000

 O/F=    0.00000  %FUEL=100.000000  R,EQ.RATIO= 0.000000  PHI,EQ.RATIO= 0.000000

 THERMODYNAMIC PROPERTIES

 P, BAR            20.000   20.000   22.500   22.500   22.500   22.500   22.500   22.500
 T, K             2830.00  2840.00  2700.00  2710.00  2720.00  2730.00  2740.00  2750.00
 RHO, KG/CU M    1.6962-1 1.6896-1 2.0084-1 2.0005-1 1.9927-1 1.9849-1 1.9772-1 1.9695-1
 H, KJ/KG         43220.5  43483.6  39913.8  40146.7  40381.4  40617.8  40856.0  41096.1
 U, KJ/KG         31429.4  31646.7  28710.8  28899.7  29090.1  29282.3  29476.2  29671.8
 G, KJ/KG       -206169.1-207050.8-193469.9-194334.7-195200.4-196066.9-196934.3-197802.6
 S, KJ/(KG)(K)    88.1235  88.2164  86.4384  86.5245  86.6109  86.6977  86.7848  86.8723

 M, (1/n)           1.996    1.995    2.004    2.003    2.003    2.002    2.002    2.001
 (dLV/dLP)t      -1.00503 -1.00521 -1.00298 -1.00310 -1.00321 -1.00333 -1.00346 -1.00359
 (dLV/dLT)p        1.0982   1.1012   1.0608   1.0629   1.0651   1.0673   1.0696   1.0719
 Cp, KJ/(KG)(K)   26.1945  26.4293  23.2051  23.3776  23.5537  23.7333  23.9167  24.1036
 GAMMAs            1.2297   1.2285   1.2473   1.2461   1.2449   1.2437   1.2425   1.2414
 SON VEL,M/SEC     3807.8   3813.4   3738.1   3743.6   3749.2   3754.7   3760.3   3765.9

 TRANSPORT PROPERTIES (GASES ONLY)
   CONDUCTIVITY IN UNITS OF MILLIWATTS/(CM)(K)

 VISC,MILLIPOISE  0.44071  0.44210  0.42291  0.42423  0.42556  0.42689  0.42822  0.42956

  WITH EQUILIBRIUM REACTIONS

 Cp, KJ/(KG)(K)   26.1945  26.4293  23.2051  23.3776  23.5537  23.7333  23.9167  24.1036
 CONDUCTIVITY     21.0784  21.4187  16.8678  17.1147  17.3670  17.6248  17.8881  18.1571
 PRANDTL NUMBER    0.5477   0.5455   0.5818   0.5795   0.5772   0.5748   0.5725   0.5702

  WITH FROZEN REACTIONS

 Cp, KJ/(KG)(K)   18.2209  18.2335  18.0526  18.0656  18.0786  18.0916  18.1045  18.1174
 CONDUCTIVITY     11.4387  11.4841  10.8588  10.9016  10.9445  10.9876  11.0309  11.0744
 PRANDTL NUMBER    0.7020   0.7019   0.7031   0.7030   0.7030   0.7029   0.7028   0.7028

 MOLE FRACTIONS

 *H               0.02014  0.02083  0.01193  0.01238  0.01285  0.01333  0.01383  0.01434
 *H2              0.97986  0.97917  0.98807  0.98762  0.98715  0.98667  0.98617  0.98566

  * THERMODYNAMIC PROPERTIES FITTED TO 20000.K

 NOTE. WEIGHT FRACTION OF FUEL IN TOTAL FUELS AND OF OXIDANT IN TOTAL OXIDANTS









               THERMODYNAMIC EQUILIBRIUM PROPERTIES AT ASSIGNED

                           TEMPERATURE AND PRESSURE

 CASE =                

             REACTANT                    WT FRACTION      ENERGY      TEMP
                                          (SEE NOTE)     KJ/KG-MOL      K  
             H2                           1.0000000         0.000      0.000

 O/F=    0.00000  %FUEL=100.000000  R,EQ.RATIO= 0.000000  PHI,EQ.RATIO= 0.000000

 THERMODYNAMIC PROPERTIES

 P, BAR            22.500   22.500   22.500   22.500   22.500   22.500   22.500   22.500
 T, K             2760.00  2770.00  2780.00  2790.00  2800.00  2810.00  2820.00  2830.00
 RHO, KG/CU M    1.9618-1 1.9542-1 1.9466-1 1.9391-1 1.9316-1 1.9241-1 1.9167-1 1.9093-1
 H, KJ/KG         41338.1  41582.0  41827.9  42075.8  42325.7  42577.7  42831.8  43088.1
 U, KJ/KG         29869.2  30068.4  30269.5  30472.5  30677.3  30884.2  31093.0  31303.8
 G, KJ/KG       -198671.8-199541.8-200412.7-201284.5-202157.2-203030.8-203905.4-204780.8
 S, KJ/(KG)(K)    86.9601  87.0483  87.1369  87.2259  87.3153  87.4052  87.4955  87.5862

 M, (1/n)           2.001    2.000    2.000    1.999    1.999    1.998    1.997    1.997
 (dLV/dLP)t      -1.00372 -1.00385 -1.00399 -1.00413 -1.00428 -1.00443 -1.00459 -1.00475
 (dLV/dLT)p        1.0743   1.0767   1.0792   1.0817   1.0844   1.0870   1.0898   1.0926
 Cp, KJ/(KG)(K)   24.2944  24.4888  24.6871  24.8893  25.0953  25.3053  25.5192  25.7372
 GAMMAs            1.2402   1.2390   1.2379   1.2367   1.2355   1.2344   1.2333   1.2321
 SON VEL,M/SEC     3771.4   3777.0   3782.5   3788.1   3793.7   3799.3   3804.9   3810.5

 TRANSPORT PROPERTIES (GASES ONLY)
   CONDUCTIVITY IN UNITS OF MILLIWATTS/(CM)(K)

 VISC,MILLIPOISE  0.43090  0.43225  0.43360  0.43496  0.43632  0.43768  0.43905  0.44042

  WITH EQUILIBRIUM REACTIONS

 Cp, KJ/(KG)(K)   24.2944  24.4888  24.6871  24.8893  25.0953  25.3053  25.5192  25.7372
 CONDUCTIVITY     18.4318  18.7123  18.9987  19.2911  19.5895  19.8941  20.2048  20.5219
 PRANDTL NUMBER    0.5680   0.5657   0.5634   0.5612   0.5589   0.5567   0.5545   0.5524

  WITH FROZEN REACTIONS

 Cp, KJ/(KG)(K)   18.1303  18.1431  18.1559  18.1687  18.1814  18.1941  18.2068  18.2195
 CONDUCTIVITY     11.1180  11.1618  11.2057  11.2498  11.2941  11.3386  11.3833  11.4281
 PRANDTL NUMBER    0.7027   0.7026   0.7025   0.7025   0.7024   0.7023   0.7022   0.7022

 MOLE FRACTIONS

 *H               0.01487  0.01541  0.01597  0.01654  0.01713  0.01774  0.01836  0.01900
 *H2              0.98513  0.98459  0.98403  0.98346  0.98287  0.98226  0.98164  0.98100

  * THERMODYNAMIC PROPERTIES FITTED TO 20000.K

 NOTE. WEIGHT FRACTION OF FUEL IN TOTAL FUELS AND OF OXIDANT IN TOTAL OXIDANTS









               THERMODYNAMIC EQUILIBRIUM PROPERTIES AT ASSIGNED

                           TEMPERATURE AND PRESSURE

 CASE =                

             REACTANT                    WT FRACTION      ENERGY      TEMP
                                          (SEE NOTE)     KJ/KG-MOL      K  
             H2                           1.0000000         0.000      0.000

 O/F=    0.00000  %FUEL=100.000000  R,EQ.RATIO= 0.000000  PHI,EQ.RATIO= 0.000000

 THERMODYNAMIC PROPERTIES

 P, BAR            22.500   25.000   25.000   25.000   25.000   25.000   25.000   25.000
 T, K             2840.00  2700.00  2710.00  2720.00  2730.00  2740.00  2750.00  2760.00
 RHO, KG/CU M    1.9020-1 2.2322-1 2.2235-1 2.2148-1 2.2062-1 2.1976-1 2.1891-1 2.1806-1
 H, KJ/KG         43346.6  39843.8  40074.0  40305.9  40539.5  40774.8  41011.9  41250.7
 U, KJ/KG         31516.7  28644.3  28830.6  29018.4  29207.9  29399.0  29591.7  29786.2
 G, KJ/KG       -205657.1-192289.7-193149.9-194010.9-194872.8-195735.5-196599.1-197463.6
 S, KJ/(KG)(K)    87.6773  85.9754  86.0605  86.1459  86.2316  86.3176  86.4040  86.4907

 M, (1/n)           1.996    2.004    2.004    2.004    2.003    2.003    2.002    2.002
 (dLV/dLP)t      -1.00491 -1.00283 -1.00294 -1.00305 -1.00316 -1.00328 -1.00340 -1.00353
 (dLV/dLT)p        1.0955   1.0577   1.0597   1.0618   1.0639   1.0660   1.0682   1.0705
 Cp, KJ/(KG)(K)   25.9593  22.9399  23.1042  23.2719  23.4430  23.6175  23.7956  23.9771
 GAMMAs            1.2310   1.2492   1.2480   1.2469   1.2457   1.2445   1.2434   1.2422
 SON VEL,M/SEC     3816.1   3740.4   3745.9   3751.5   3757.1   3762.7   3768.2   3773.8

 TRANSPORT PROPERTIES (GASES ONLY)
   CONDUCTIVITY IN UNITS OF MILLIWATTS/(CM)(K)

 VISC,MILLIPOISE  0.44180  0.42276  0.42408  0.42540  0.42672  0.42805  0.42938  0.43072

  WITH EQUILIBRIUM REACTIONS

 Cp, KJ/(KG)(K)   25.9593  22.9399  23.1042  23.2719  23.4430  23.6175  23.7956  23.9771
 CONDUCTIVITY     20.8454  16.5557  16.7921  17.0335  17.2802  17.5322  17.7895  18.0522
 PRANDTL NUMBER    0.5502   0.5858   0.5835   0.5812   0.5789   0.5766   0.5743   0.5721

  WITH FROZEN REACTIONS

 Cp, KJ/(KG)(K)   18.2321  18.0518  18.0648  18.0778  18.0907  18.1036  18.1165  18.1293
 CONDUCTIVITY     11.4732  10.8533  10.8958  10.9386  10.9814  11.0245  11.0677  11.1110
 PRANDTL NUMBER    0.7021   0.7032   0.7031   0.7030   0.7030   0.7029   0.7028   0.7028

 MOLE FRACTIONS

 *H               0.01965  0.01132  0.01175  0.01220  0.01265  0.01313  0.01361  0.01411
 *H2              0.98035  0.98868  0.98825  0.98780  0.98735  0.98687  0.98639  0.98589

  * THERMODYNAMIC PROPERTIES FITTED TO 20000.K

 NOTE. WEIGHT FRACTION OF FUEL IN TOTAL FUELS AND OF OXIDANT IN TOTAL OXIDANTS









               THERMODYNAMIC EQUILIBRIUM PROPERTIES AT ASSIGNED

                           TEMPERATURE AND PRESSURE

 CASE =                

             REACTANT                    WT FRACTION      ENERGY      TEMP
                                          (SEE NOTE)     KJ/KG-MOL      K  
             H2                           1.0000000         0.000      0.000

 O/F=    0.00000  %FUEL=100.000000  R,EQ.RATIO= 0.000000  PHI,EQ.RATIO= 0.000000

 THERMODYNAMIC PROPERTIES

 P, BAR            25.000   25.000   25.000   25.000   25.000   25.000   25.000   25.000
 T, K             2770.00  2780.00  2790.00  2800.00  2810.00  2820.00  2830.00  2840.00
 RHO, KG/CU M    2.1722-1 2.1638-1 2.1555-1 2.1472-1 2.1389-1 2.1307-1 2.1225-1 2.1144-1
 H, KJ/KG         41491.4  41734.0  41978.4  42224.9  42473.2  42723.7  42976.1  43230.7
 U, KJ/KG         29982.4  30180.3  30380.0  30581.6  30785.0  30990.3  31197.6  31406.8
 G, KJ/KG       -198329.0-199195.2-200062.3-200930.2-201799.1-202668.8-203539.5-204411.0
 S, KJ/(KG)(K)    86.5778  86.6652  86.7529  86.8411  86.9297  87.0186  87.1080  87.1978

 M, (1/n)           2.001    2.001    2.000    1.999    1.999    1.998    1.998    1.997
 (dLV/dLP)t      -1.00366 -1.00379 -1.00392 -1.00406 -1.00421 -1.00436 -1.00451 -1.00466
 (dLV/dLT)p        1.0728   1.0752   1.0776   1.0801   1.0826   1.0852   1.0879   1.0906
 Cp, KJ/(KG)(K)   24.1623  24.3510  24.5434  24.7395  24.9393  25.1429  25.3503  25.5616
 GAMMAs            1.2411   1.2399   1.2388   1.2376   1.2365   1.2354   1.2343   1.2331
 SON VEL,M/SEC     3779.4   3784.9   3790.5   3796.1   3801.7   3807.3   3812.8   3818.5

 TRANSPORT PROPERTIES (GASES ONLY)
   CONDUCTIVITY IN UNITS OF MILLIWATTS/(CM)(K)

 VISC,MILLIPOISE  0.43206  0.43340  0.43475  0.43610  0.43746  0.43882  0.44019  0.44156

  WITH EQUILIBRIUM REACTIONS

 Cp, KJ/(KG)(K)   24.1623  24.3510  24.5434  24.7395  24.9393  25.1429  25.3503  25.5616
 CONDUCTIVITY     18.3205  18.5944  18.8740  19.1593  19.4505  19.7476  20.0507  20.3598
 PRANDTL NUMBER    0.5698   0.5676   0.5653   0.5631   0.5609   0.5587   0.5565   0.5544

  WITH FROZEN REACTIONS

 Cp, KJ/(KG)(K)   18.1422  18.1549  18.1677  18.1804  18.1930  18.2057  18.2183  18.2308
 CONDUCTIVITY     11.1545  11.1982  11.2421  11.2861  11.3303  11.3747  11.4192  11.4640
 PRANDTL NUMBER    0.7027   0.7026   0.7026   0.7025   0.7024   0.7023   0.7023   0.7022

 MOLE FRACTIONS

 *H               0.01462  0.01515  0.01570  0.01626  0.01683  0.01742  0.01803  0.01865
 *H2              0.98538  0.98485  0.98430  0.98374  0.98317  0.98258  0.98197  0.98135

  * THERMODYNAMIC PROPERTIES FITTED TO 20000.K

 NOTE. WEIGHT FRACTION OF FUEL IN TOTAL FUELS AND OF OXIDANT IN TOTAL OXIDANTS









               THERMODYNAMIC EQUILIBRIUM PROPERTIES AT ASSIGNED

                           TEMPERATURE AND PRESSURE

 CASE =                

             REACTANT                    WT FRACTION      ENERGY      TEMP
                                          (SEE NOTE)     KJ/KG-MOL      K  
             H2                           1.0000000         0.000      0.000

 O/F=    0.00000  %FUEL=100.000000  R,EQ.RATIO= 0.000000  PHI,EQ.RATIO= 0.000000

 THERMODYNAMIC PROPERTIES

 P, BAR            28.000   28.000   28.000   28.000   28.000   28.000   28.000   28.000
 T, K             2700.00  2710.00  2720.00  2730.00  2740.00  2750.00  2760.00  2770.00
 RHO, KG/CU M    2.5009-1 2.4911-1 2.4815-1 2.4718-1 2.4623-1 2.4527-1 2.4433-1 2.4339-1
 H, KJ/KG         39772.6  40000.0  40229.1  40459.8  40692.1  40926.0  41161.7  41399.1
 U, KJ/KG         28576.5  28760.2  28945.4  29132.1  29320.4  29510.2  29701.6  29894.7
 G, KJ/KG       -191020.7-191875.9-192731.9-193588.8-194446.6-195305.2-196164.6-197024.9
 S, KJ/(KG)(K)    85.4790  85.5631  85.6474  85.7321  85.8170  85.9023  85.9878  86.0737

 M, (1/n)           2.005    2.005    2.004    2.004    2.003    2.003    2.002    2.002
 (dLV/dLP)t      -1.00267 -1.00278 -1.00288 -1.00299 -1.00310 -1.00322 -1.00333 -1.00346
 (dLV/dLT)p        1.0546   1.0565   1.0584   1.0604   1.0624   1.0645   1.0666   1.0688
 Cp, KJ/(KG)(K)   22.6698  22.8258  22.9849  23.1473  23.3129  23.4818  23.6540  23.8296
 GAMMAs            1.2512   1.2500   1.2489   1.2478   1.2466   1.2455   1.2444   1.2432
 SON VEL,M/SEC     3742.8   3748.4   3754.0   3759.5   3765.1   3770.7   3776.3   3781.9

 TRANSPORT PROPERTIES (GASES ONLY)
   CONDUCTIVITY IN UNITS OF MILLIWATTS/(CM)(K)

 VISC,MILLIPOISE  0.42261  0.42392  0.42524  0.42655  0.42788  0.42920  0.43053  0.43186

  WITH EQUILIBRIUM REACTIONS

 Cp, KJ/(KG)(K)   22.6698  22.8258  22.9849  23.1473  23.3129  23.4818  23.6540  23.8296
 CONDUCTIVITY     16.2377  16.4632  16.6936  16.9290  17.1693  17.4148  17.6654  17.9212
 PRANDTL NUMBER    0.5900   0.5878   0.5855   0.5832   0.5810   0.5787   0.5765   0.5742

  WITH FROZEN REACTIONS

 Cp, KJ/(KG)(K)   18.0510  18.0640  18.0769  18.0898  18.1027  18.1156  18.1284  18.1411
 CONDUCTIVITY     10.8476  10.8900  10.9325  10.9751  11.0179  11.0608  11.1039  11.1472
 PRANDTL NUMBER    0.7032   0.7032   0.7031   0.7031   0.7030   0.7029   0.7029   0.7028

 MOLE FRACTIONS

 *H               0.01070  0.01111  0.01153  0.01196  0.01241  0.01287  0.01334  0.01382
 *H2              0.98930  0.98889  0.98847  0.98804  0.98759  0.98713  0.98666  0.98618

  * THERMODYNAMIC PROPERTIES FITTED TO 20000.K

 NOTE. WEIGHT FRACTION OF FUEL IN TOTAL FUELS AND OF OXIDANT IN TOTAL OXIDANTS









               THERMODYNAMIC EQUILIBRIUM PROPERTIES AT ASSIGNED

                           TEMPERATURE AND PRESSURE

 CASE =                

             REACTANT                    WT FRACTION      ENERGY      TEMP
                                          (SEE NOTE)     KJ/KG-MOL      K  
             H2                           1.0000000         0.000      0.000

 O/F=    0.00000  %FUEL=100.000000  R,EQ.RATIO= 0.000000  PHI,EQ.RATIO= 0.000000

 THERMODYNAMIC PROPERTIES

 P, BAR            28.000   28.000   28.000   28.000   28.000   28.000   28.000   31.000
 T, K             2780.00  2790.00  2800.00  2810.00  2820.00  2830.00  2840.00  2700.00
 RHO, KG/CU M    2.4245-1 2.4152-1 2.4059-1 2.3967-1 2.3875-1 2.3784-1 2.3693-1 2.7696-1
 H, KJ/KG         41638.3  41879.3  42122.1  42366.9  42613.5  42862.1  43112.6  39711.9
 U, KJ/KG         30089.5  30285.9  30484.1  30684.0  30885.8  31089.4  31294.8  28518.9
 G, KJ/KG       -197886.1-198748.1-199611.0-200474.8-201339.4-202205.0-203071.4-189881.3
 S, KJ/(KG)(K)    86.1599  86.2464  86.3333  86.4205  86.5081  86.5961  86.6845  85.0345

 M, (1/n)           2.001    2.001    2.000    2.000    1.999    1.999    1.998    2.006
 (dLV/dLP)t      -1.00358 -1.00371 -1.00384 -1.00398 -1.00412 -1.00426 -1.00441 -1.00254
 (dLV/dLT)p        1.0710   1.0733   1.0757   1.0781   1.0806   1.0831   1.0857   1.0519
 Cp, KJ/(KG)(K)   24.0087  24.1911  24.3771  24.5666  24.7597  24.9563  25.1566  22.4400
 GAMMAs            1.2421   1.2410   1.2399   1.2387   1.2376   1.2365   1.2354   1.2529
 SON VEL,M/SEC     3787.4   3793.0   3798.6   3804.2   3809.8   3815.4   3821.0   3744.9

 TRANSPORT PROPERTIES (GASES ONLY)
   CONDUCTIVITY IN UNITS OF MILLIWATTS/(CM)(K)

 VISC,MILLIPOISE  0.43320  0.43454  0.43588  0.43723  0.43858  0.43994  0.44130  0.42248

  WITH EQUILIBRIUM REACTIONS

 Cp, KJ/(KG)(K)   24.0087  24.1911  24.3771  24.5666  24.7597  24.9563  25.1566  22.4400
 CONDUCTIVITY     18.1823  18.4488  18.7208  18.9983  19.2814  19.5702  19.8648  15.9668
 PRANDTL NUMBER    0.5720   0.5698   0.5676   0.5654   0.5632   0.5610   0.5589   0.5938

  WITH FROZEN REACTIONS

 Cp, KJ/(KG)(K)   18.1539  18.1666  18.1792  18.1919  18.2045  18.2170  18.2296  18.0503
 CONDUCTIVITY     11.1906  11.2342  11.2779  11.3218  11.3658  11.4101  11.4545  10.8428
 PRANDTL NUMBER    0.7028   0.7027   0.7026   0.7025   0.7025   0.7024   0.7023   0.7033

 MOLE FRACTIONS

 *H               0.01433  0.01484  0.01537  0.01591  0.01647  0.01705  0.01764  0.01017
 *H2              0.98567  0.98516  0.98463  0.98409  0.98353  0.98295  0.98236  0.98983

  * THERMODYNAMIC PROPERTIES FITTED TO 20000.K

 NOTE. WEIGHT FRACTION OF FUEL IN TOTAL FUELS AND OF OXIDANT IN TOTAL OXIDANTS









               THERMODYNAMIC EQUILIBRIUM PROPERTIES AT ASSIGNED

                           TEMPERATURE AND PRESSURE

 CASE =                

             REACTANT                    WT FRACTION      ENERGY      TEMP
                                          (SEE NOTE)     KJ/KG-MOL      K  
             H2                           1.0000000         0.000      0.000

 O/F=    0.00000  %FUEL=100.000000  R,EQ.RATIO= 0.000000  PHI,EQ.RATIO= 0.000000

 THERMODYNAMIC PROPERTIES

 P, BAR            31.000   31.000   31.000   31.000   31.000   31.000   31.000   31.000
 T, K             2710.00  2720.00  2730.00  2740.00  2750.00  2760.00  2770.00  2780.00
 RHO, KG/CU M    2.7588-1 2.7481-1 2.7375-1 2.7269-1 2.7164-1 2.7059-1 2.6955-1 2.6852-1
 H, KJ/KG         39937.1  40163.7  40391.9  40621.6  40853.0  41085.9  41320.6  41556.9
 U, KJ/KG         28700.3  28883.3  29067.6  29253.5  29440.8  29629.7  29820.1  30012.1
 G, KJ/KG       -190732.0-191583.6-192436.0-193289.3-194143.4-194998.4-195854.2-196710.8
 S, KJ/(KG)(K)    85.1177  85.2012  85.2850  85.3690  85.4532  85.5378  85.6227  85.7078

 M, (1/n)           2.005    2.005    2.004    2.004    2.004    2.003    2.003    2.002
 (dLV/dLP)t      -1.00264 -1.00274 -1.00284 -1.00295 -1.00306 -1.00317 -1.00329 -1.00340
 (dLV/dLT)p        1.0537   1.0555   1.0574   1.0593   1.0613   1.0633   1.0654   1.0675
 Cp, KJ/(KG)(K)   22.5888  22.7407  22.8956  23.0536  23.2148  23.3791  23.5466  23.7173
 GAMMAs            1.2518   1.2507   1.2496   1.2485   1.2473   1.2462   1.2451   1.2440
 SON VEL,M/SEC     3750.5   3756.1   3761.7   3767.3   3772.9   3778.5   3784.1   3789.7

 TRANSPORT PROPERTIES (GASES ONLY)
   CONDUCTIVITY IN UNITS OF MILLIWATTS/(CM)(K)

 VISC,MILLIPOISE  0.42379  0.42510  0.42641  0.42773  0.42905  0.43037  0.43169  0.43302

  WITH EQUILIBRIUM REACTIONS

 Cp, KJ/(KG)(K)   22.5888  22.7407  22.8956  23.0536  23.2148  23.3791  23.5466  23.7173
 CONDUCTIVITY     16.1832  16.4042  16.6299  16.8603  17.0956  17.3359  17.5810  17.8313
 PRANDTL NUMBER    0.5915   0.5893   0.5871   0.5848   0.5826   0.5804   0.5782   0.5760

  WITH FROZEN REACTIONS

 Cp, KJ/(KG)(K)   18.0632  18.0762  18.0891  18.1019  18.1147  18.1275  18.1403  18.1530
 CONDUCTIVITY     10.8849  10.9273  10.9697  11.0123  11.0550  11.0979  11.1409  11.1841
 PRANDTL NUMBER    0.7033   0.7032   0.7032   0.7031   0.7030   0.7030   0.7029   0.7028

 MOLE FRACTIONS

 *H               0.01056  0.01096  0.01137  0.01179  0.01223  0.01268  0.01314  0.01362
 *H2              0.98944  0.98904  0.98863  0.98821  0.98777  0.98732  0.98686  0.98638

  * THERMODYNAMIC PROPERTIES FITTED TO 20000.K

 NOTE. WEIGHT FRACTION OF FUEL IN TOTAL FUELS AND OF OXIDANT IN TOTAL OXIDANTS









               THERMODYNAMIC EQUILIBRIUM PROPERTIES AT ASSIGNED

                           TEMPERATURE AND PRESSURE

 CASE =                

             REACTANT                    WT FRACTION      ENERGY      TEMP
                                          (SEE NOTE)     KJ/KG-MOL      K  
             H2                           1.0000000         0.000      0.000

 O/F=    0.00000  %FUEL=100.000000  R,EQ.RATIO= 0.000000  PHI,EQ.RATIO= 0.000000

 THERMODYNAMIC PROPERTIES

 P, BAR            31.000   31.000   31.000   31.000   31.000   31.000   35.000   35.000
 T, K             2790.00  2800.00  2810.00  2820.00  2830.00  2840.00  2700.00  2710.00
 RHO, KG/CU M    2.6749-1 2.6647-1 2.6545-1 2.6444-1 2.6343-1 2.6243-1 3.1279-1 3.1158-1
 H, KJ/KG         41794.9  42034.7  42276.3  42519.7  42765.0  43012.2  39643.5  39866.1
 U, KJ/KG         30205.8  30401.1  30598.1  30796.8  30997.3  31199.5  28453.8  28632.8
 G, KJ/KG       -197568.3-198426.7-199285.9-200146.0-201007.0-201868.8-188523.1-189368.5
 S, KJ/(KG)(K)    85.7933  85.8791  85.9652  86.0517  86.1385  86.2257  84.5062  84.5884

 M, (1/n)           2.002    2.001    2.001    2.000    2.000    1.999    2.006    2.006
 (dLV/dLP)t      -1.00353 -1.00365 -1.00378 -1.00392 -1.00405 -1.00419 -1.00239 -1.00248
 (dLV/dLT)p        1.0697   1.0720   1.0743   1.0766   1.0790   1.0815   1.0488   1.0505
 Cp, KJ/(KG)(K)   23.8913  24.0687  24.2494  24.4335  24.6210  24.8119  22.1808  22.3216
 GAMMAs            1.2429   1.2418   1.2407   1.2396   1.2385   1.2374   1.2549   1.2538
 SON VEL,M/SEC     3795.3   3800.9   3806.4   3812.0   3817.6   3823.2   3747.3   3753.0

 TRANSPORT PROPERTIES (GASES ONLY)
   CONDUCTIVITY IN UNITS OF MILLIWATTS/(CM)(K)

 VISC,MILLIPOISE  0.43436  0.43570  0.43704  0.43838  0.43973  0.44109  0.42234  0.42364

  WITH EQUILIBRIUM REACTIONS

 Cp, KJ/(KG)(K)   23.8913  24.0687  24.2494  24.4335  24.6210  24.8119  22.1808  22.3216
 CONDUCTIVITY     18.0867  18.3472  18.6131  18.8843  19.1609  19.4430  15.6611  15.8671
 PRANDTL NUMBER    0.5738   0.5716   0.5694   0.5672   0.5650   0.5629   0.5982   0.5960

  WITH FROZEN REACTIONS

 Cp, KJ/(KG)(K)   18.1657  18.1783  18.1909  18.2035  18.2160  18.2285  18.0495  18.0624
 CONDUCTIVITY     11.2274  11.2709  11.3145  11.3583  11.4023  11.4464  10.8374  10.8793
 PRANDTL NUMBER    0.7028   0.7027   0.7026   0.7026   0.7025   0.7024   0.7034   0.7034

 MOLE FRACTIONS

 *H               0.01411  0.01461  0.01513  0.01566  0.01621  0.01677  0.00957  0.00994
 *H2              0.98589  0.98539  0.98487  0.98434  0.98379  0.98323  0.99043  0.99006

  * THERMODYNAMIC PROPERTIES FITTED TO 20000.K

 NOTE. WEIGHT FRACTION OF FUEL IN TOTAL FUELS AND OF OXIDANT IN TOTAL OXIDANTS









               THERMODYNAMIC EQUILIBRIUM PROPERTIES AT ASSIGNED

                           TEMPERATURE AND PRESSURE

 CASE =                

             REACTANT                    WT FRACTION      ENERGY      TEMP
                                          (SEE NOTE)     KJ/KG-MOL      K  
             H2                           1.0000000         0.000      0.000

 O/F=    0.00000  %FUEL=100.000000  R,EQ.RATIO= 0.000000  PHI,EQ.RATIO= 0.000000

 THERMODYNAMIC PROPERTIES

 P, BAR            35.000   35.000   35.000   35.000   35.000   35.000   35.000   35.000
 T, K             2720.00  2730.00  2740.00  2750.00  2760.00  2770.00  2780.00  2790.00
 RHO, KG/CU M    3.1037-1 3.0917-1 3.0798-1 3.0680-1 3.0562-1 3.0445-1 3.0329-1 3.0213-1
 H, KJ/KG         40090.0  40315.4  40542.2  40770.6  41000.5  41232.0  41465.1  41699.8
 U, KJ/KG         28813.2  28994.9  29178.0  29362.5  29548.5  29736.0  29925.0  30115.5
 G, KJ/KG       -190214.8-191061.9-191909.9-192758.7-193608.3-194458.7-195310.0-196162.2
 S, KJ/(KG)(K)    84.6709  84.7536  84.8365  84.9197  85.0032  85.0869  85.1709  85.2552

 M, (1/n)           2.005    2.005    2.005    2.004    2.004    2.003    2.003    2.002
 (dLV/dLP)t      -1.00258 -1.00268 -1.00278 -1.00288 -1.00298 -1.00309 -1.00321 -1.00332
 (dLV/dLT)p        1.0523   1.0540   1.0558   1.0577   1.0596   1.0616   1.0636   1.0656
 Cp, KJ/(KG)(K)   22.4652  22.6118  22.7612  22.9136  23.0690  23.2273  23.3888  23.5533
 GAMMAs            1.2528   1.2517   1.2506   1.2495   1.2484   1.2473   1.2462   1.2451
 SON VEL,M/SEC     3758.6   3764.2   3769.9   3775.5   3781.1   3786.7   3792.3   3797.9

 TRANSPORT PROPERTIES (GASES ONLY)
   CONDUCTIVITY IN UNITS OF MILLIWATTS/(CM)(K)

 VISC,MILLIPOISE  0.42494  0.42625  0.42756  0.42887  0.43019  0.43151  0.43283  0.43415

  WITH EQUILIBRIUM REACTIONS

 Cp, KJ/(KG)(K)   22.4652  22.6118  22.7612  22.9136  23.0690  23.2273  23.3888  23.5533
 CONDUCTIVITY     16.0775  16.2923  16.5116  16.7355  16.9640  17.1972  17.4351  17.6779
 PRANDTL NUMBER    0.5938   0.5916   0.5894   0.5872   0.5850   0.5828   0.5806   0.5784

  WITH FROZEN REACTIONS

 Cp, KJ/(KG)(K)   18.0754  18.0882  18.1010  18.1138  18.1266  18.1393  18.1520  18.1646
 CONDUCTIVITY     10.9214  10.9636  11.0059  11.0484  11.0910  11.1338  11.1767  11.2197
 PRANDTL NUMBER    0.7033   0.7032   0.7032   0.7031   0.7031   0.7030   0.7030   0.7029

 MOLE FRACTIONS

 *H               0.01032  0.01070  0.01110  0.01152  0.01194  0.01237  0.01282  0.01328
 *H2              0.98968  0.98930  0.98890  0.98848  0.98806  0.98763  0.98718  0.98672

  * THERMODYNAMIC PROPERTIES FITTED TO 20000.K

 NOTE. WEIGHT FRACTION OF FUEL IN TOTAL FUELS AND OF OXIDANT IN TOTAL OXIDANTS









               THERMODYNAMIC EQUILIBRIUM PROPERTIES AT ASSIGNED

                           TEMPERATURE AND PRESSURE

 CASE =                

             REACTANT                    WT FRACTION      ENERGY      TEMP
                                          (SEE NOTE)     KJ/KG-MOL      K  
             H2                           1.0000000         0.000      0.000

 O/F=    0.00000  %FUEL=100.000000  R,EQ.RATIO= 0.000000  PHI,EQ.RATIO= 0.000000

 THERMODYNAMIC PROPERTIES

 P, BAR            35.000   35.000   35.000   35.000   35.000   39.000   39.000   39.000
 T, K             2800.00  2810.00  2820.00  2830.00  2840.00  2700.00  2710.00  2720.00
 RHO, KG/CU M    3.0098-1 2.9984-1 2.9870-1 2.9757-1 2.9644-1 3.4862-1 3.4727-1 3.4594-1
 H, KJ/KG         41936.1  42174.2  42414.0  42655.5  42898.9  39586.0  39806.3  40027.9
 U, KJ/KG         30307.5  30501.2  30696.5  30893.4  31092.0  28399.1  28576.0  28754.1
 G, KJ/KG       -197015.1-197869.0-198723.6-199579.2-200435.5-187312.4-188153.1-188994.7
 S, KJ/(KG)(K)    85.3397  85.4246  85.5098  85.5953  85.6811  84.0364  84.1178  84.1995

 M, (1/n)           2.002    2.002    2.001    2.000    2.000    2.007    2.006    2.006
 (dLV/dLP)t      -1.00344 -1.00356 -1.00369 -1.00381 -1.00395 -1.00227 -1.00235 -1.00244
 (dLV/dLT)p        1.0678   1.0699   1.0721   1.0744   1.0767   1.0463   1.0479   1.0495
 Cp, KJ/(KG)(K)   23.7209  23.8916  24.0656  24.2428  24.4232  21.9625  22.0966  22.2333
 GAMMAs            1.2440   1.2430   1.2419   1.2408   1.2397   1.2567   1.2556   1.2545
 SON VEL,M/SEC     3803.5   3809.1   3814.7   3820.3   3825.9   3749.5   3755.1   3760.8

 TRANSPORT PROPERTIES (GASES ONLY)
   CONDUCTIVITY IN UNITS OF MILLIWATTS/(CM)(K)

 VISC,MILLIPOISE  0.43548  0.43682  0.43816  0.43950  0.44084  0.42222  0.42352  0.42481

  WITH EQUILIBRIUM REACTIONS

 Cp, KJ/(KG)(K)   23.7209  23.8916  24.0656  24.2428  24.4232  21.9625  22.0966  22.2333
 CONDUCTIVITY     17.9256  18.1783  18.4360  18.6988  18.9668  15.4036  15.6009  15.8023
 PRANDTL NUMBER    0.5763   0.5741   0.5720   0.5698   0.5677   0.6020   0.5999   0.5977

  WITH FROZEN REACTIONS

 Cp, KJ/(KG)(K)   18.1772  18.1898  18.2023  18.2148  18.2273  18.0488  18.0618  18.0747
 CONDUCTIVITY     11.2629  11.3063  11.3498  11.3935  11.4373  10.8328  10.8745  10.9164
 PRANDTL NUMBER    0.7028   0.7028   0.7027   0.7026   0.7026   0.7035   0.7034   0.7034

 MOLE FRACTIONS

 *H               0.01376  0.01424  0.01475  0.01526  0.01579  0.00907  0.00942  0.00978
 *H2              0.98624  0.98576  0.98525  0.98474  0.98421  0.99093  0.99058  0.99022

  * THERMODYNAMIC PROPERTIES FITTED TO 20000.K

 NOTE. WEIGHT FRACTION OF FUEL IN TOTAL FUELS AND OF OXIDANT IN TOTAL OXIDANTS









               THERMODYNAMIC EQUILIBRIUM PROPERTIES AT ASSIGNED

                           TEMPERATURE AND PRESSURE

 CASE =                

             REACTANT                    WT FRACTION      ENERGY      TEMP
                                          (SEE NOTE)     KJ/KG-MOL      K  
             H2                           1.0000000         0.000      0.000

 O/F=    0.00000  %FUEL=100.000000  R,EQ.RATIO= 0.000000  PHI,EQ.RATIO= 0.000000

 THERMODYNAMIC PROPERTIES

 P, BAR            39.000   39.000   39.000   39.000   39.000   39.000   39.000   39.000
 T, K             2730.00  2740.00  2750.00  2760.00  2770.00  2780.00  2790.00  2800.00
 RHO, KG/CU M    3.4461-1 3.4328-1 3.4197-1 3.4066-1 3.3936-1 3.3807-1 3.3678-1 3.3550-1
 H, KJ/KG         40250.9  40475.4  40701.2  40928.6  41157.4  41387.8  41619.7  41853.1
 U, KJ/KG         28933.6  29114.5  29296.6  29480.2  29665.2  29851.5  30039.4  30228.8
 G, KJ/KG       -189837.1-190680.3-191524.4-192369.2-193214.9-194061.4-194908.8-195757.0
 S, KJ/(KG)(K)    84.2813  84.3634  84.4457  84.5282  84.6110  84.6940  84.7772  84.8608

 M, (1/n)           2.006    2.005    2.005    2.004    2.004    2.004    2.003    2.003
 (dLV/dLP)t      -1.00254 -1.00263 -1.00273 -1.00283 -1.00293 -1.00304 -1.00315 -1.00326
 (dLV/dLT)p        1.0512   1.0529   1.0547   1.0565   1.0584   1.0603   1.0622   1.0642
 Cp, KJ/(KG)(K)   22.3728  22.5150  22.6601  22.8079  22.9586  23.1121  23.2686  23.4280
 GAMMAs            1.2535   1.2524   1.2513   1.2503   1.2492   1.2481   1.2471   1.2460
 SON VEL,M/SEC     3766.4   3772.1   3777.7   3783.3   3788.9   3794.6   3800.2   3805.8

 TRANSPORT PROPERTIES (GASES ONLY)
   CONDUCTIVITY IN UNITS OF MILLIWATTS/(CM)(K)

 VISC,MILLIPOISE  0.42611  0.42742  0.42872  0.43003  0.43135  0.43266  0.43398  0.43531

  WITH EQUILIBRIUM REACTIONS

 Cp, KJ/(KG)(K)   22.3728  22.5150  22.6601  22.8079  22.9586  23.1121  23.2686  23.4280
 CONDUCTIVITY     16.0080  16.2178  16.4320  16.6506  16.8737  17.1013  17.3335  17.5703
 PRANDTL NUMBER    0.5955   0.5934   0.5912   0.5891   0.5869   0.5847   0.5826   0.5804

  WITH FROZEN REACTIONS

 Cp, KJ/(KG)(K)   18.0875  18.1003  18.1131  18.1258  18.1385  18.1511  18.1637  18.1763
 CONDUCTIVITY     10.9584  11.0006  11.0428  11.0852  11.1278  11.1705  11.2133  11.2562
 PRANDTL NUMBER    0.7033   0.7033   0.7032   0.7032   0.7031   0.7030   0.7030   0.7029

 MOLE FRACTIONS

 *H               0.01014  0.01052  0.01091  0.01131  0.01173  0.01215  0.01259  0.01304
 *H2              0.98986  0.98948  0.98909  0.98869  0.98827  0.98785  0.98741  0.98696

  * THERMODYNAMIC PROPERTIES FITTED TO 20000.K

 NOTE. WEIGHT FRACTION OF FUEL IN TOTAL FUELS AND OF OXIDANT IN TOTAL OXIDANTS









               THERMODYNAMIC EQUILIBRIUM PROPERTIES AT ASSIGNED

                           TEMPERATURE AND PRESSURE

 CASE =                

             REACTANT                    WT FRACTION      ENERGY      TEMP
                                          (SEE NOTE)     KJ/KG-MOL      K  
             H2                           1.0000000         0.000      0.000

 O/F=    0.00000  %FUEL=100.000000  R,EQ.RATIO= 0.000000  PHI,EQ.RATIO= 0.000000

 THERMODYNAMIC PROPERTIES

 P, BAR            39.000   39.000   39.000   39.000   44.000   44.000   44.000   44.000
 T, K             2810.00  2820.00  2830.00  2840.00  2700.00  2710.00  2720.00  2730.00
 RHO, KG/CU M    3.3423-1 3.3296-1 3.3171-1 3.3046-1 3.9342-1 3.9191-1 3.9040-1 3.8890-1
 H, KJ/KG         42088.2  42325.0  42563.4  42803.5  39525.4  39743.3  39962.6  40183.1
 U, KJ/KG         30419.6  30612.0  30806.0  31001.6  28341.4  28516.1  28692.0  28869.2
 G, KJ/KG       -196606.0-197455.9-198306.6-199158.2-185963.1-186798.6-187635.0-188472.1
 S, KJ/(KG)(K)    84.9446  85.0287  85.1131  85.1978  83.5142  83.5948  83.6756  83.7565

 M, (1/n)           2.002    2.002    2.001    2.001    2.007    2.007    2.007    2.006
 (dLV/dLP)t      -1.00337 -1.00349 -1.00362 -1.00374 -1.00214 -1.00222 -1.00230 -1.00239
 (dLV/dLT)p        1.0663   1.0684   1.0705   1.0727   1.0436   1.0451   1.0466   1.0482
 Cp, KJ/(KG)(K)   23.5904  23.7559  23.9244  24.0959  21.7328  21.8597  21.9892  22.1213
 GAMMAs            1.2449   1.2439   1.2428   1.2418   1.2586   1.2575   1.2565   1.2554
 SON VEL,M/SEC     3811.4   3817.0   3822.6   3828.2   3751.7   3757.4   3763.1   3768.8

 TRANSPORT PROPERTIES (GASES ONLY)
   CONDUCTIVITY IN UNITS OF MILLIWATTS/(CM)(K)

 VISC,MILLIPOISE  0.43663  0.43796  0.43930  0.44064  0.42209  0.42338  0.42467  0.42597

  WITH EQUILIBRIUM REACTIONS

 Cp, KJ/(KG)(K)   23.5904  23.7559  23.9244  24.0959  21.7328  21.8597  21.9892  22.1213
 CONDUCTIVITY     17.8119  18.0582  18.3094  18.5656  15.1324  15.3205  15.5124  15.7084
 PRANDTL NUMBER    0.5783   0.5761   0.5740   0.5719   0.6062   0.6041   0.6020   0.5999

  WITH FROZEN REACTIONS

 Cp, KJ/(KG)(K)   18.1889  18.2014  18.2139  18.2263  18.0482  18.0611  18.0739  18.0867
 CONDUCTIVITY     11.2993  11.3426  11.3860  11.4296  10.8279  10.8695  10.9112  10.9530
 PRANDTL NUMBER    0.7029   0.7028   0.7027   0.7027   0.7036   0.7035   0.7035   0.7034

 MOLE FRACTIONS

 *H               0.01350  0.01397  0.01446  0.01496  0.00854  0.00887  0.00921  0.00955
 *H2              0.98650  0.98603  0.98554  0.98504  0.99146  0.99113  0.99079  0.99045

  * THERMODYNAMIC PROPERTIES FITTED TO 20000.K

 NOTE. WEIGHT FRACTION OF FUEL IN TOTAL FUELS AND OF OXIDANT IN TOTAL OXIDANTS









               THERMODYNAMIC EQUILIBRIUM PROPERTIES AT ASSIGNED

                           TEMPERATURE AND PRESSURE

 CASE =                

             REACTANT                    WT FRACTION      ENERGY      TEMP
                                          (SEE NOTE)     KJ/KG-MOL      K  
             H2                           1.0000000         0.000      0.000

 O/F=    0.00000  %FUEL=100.000000  R,EQ.RATIO= 0.000000  PHI,EQ.RATIO= 0.000000

 THERMODYNAMIC PROPERTIES

 P, BAR            44.000   44.000   44.000   44.000   44.000   44.000   44.000   44.000
 T, K             2740.00  2750.00  2760.00  2770.00  2780.00  2790.00  2800.00  2810.00
 RHO, KG/CU M    3.8741-1 3.8593-1 3.8446-1 3.8300-1 3.8154-1 3.8010-1 3.7866-1 3.7723-1
 H, KJ/KG         40405.0  40628.2  40852.9  41078.9  41306.4  41535.3  41765.8  41997.7
 U, KJ/KG         29047.6  29227.3  29408.3  29590.6  29774.3  29959.3  30145.8  30333.7
 G, KJ/KG       -189310.1-190148.9-190988.5-191828.9-192670.1-193512.2-194355.0-195198.7
 S, KJ/(KG)(K)    83.8376  83.9189  84.0005  84.0822  84.1642  84.2464  84.3289  84.4116

 M, (1/n)           2.006    2.006    2.005    2.005    2.004    2.004    2.004    2.003
 (dLV/dLP)t      -1.00248 -1.00257 -1.00266 -1.00276 -1.00286 -1.00296 -1.00307 -1.00318
 (dLV/dLT)p        1.0498   1.0515   1.0532   1.0550   1.0568   1.0586   1.0605   1.0624
 Cp, KJ/(KG)(K)   22.2559  22.3931  22.5330  22.6756  22.8209  22.9689  23.1197  23.2734
 GAMMAs            1.2544   1.2533   1.2523   1.2512   1.2502   1.2492   1.2481   1.2471
 SON VEL,M/SEC     3774.5   3780.1   3785.8   3791.4   3797.0   3802.7   3808.3   3813.9

 TRANSPORT PROPERTIES (GASES ONLY)
   CONDUCTIVITY IN UNITS OF MILLIWATTS/(CM)(K)

 VISC,MILLIPOISE  0.42727  0.42857  0.42987  0.43118  0.43249  0.43380  0.43512  0.43644

  WITH EQUILIBRIUM REACTIONS

 Cp, KJ/(KG)(K)   22.2559  22.3931  22.5330  22.6756  22.8209  22.9689  23.1197  23.2734
 CONDUCTIVITY     15.9083  16.1124  16.3206  16.5330  16.7496  16.9706  17.1960  17.4258
 PRANDTL NUMBER    0.5978   0.5956   0.5935   0.5914   0.5893   0.5871   0.5850   0.5829

  WITH FROZEN REACTIONS

 Cp, KJ/(KG)(K)   18.0995  18.1123  18.1250  18.1376  18.1502  18.1628  18.1754  18.1879
 CONDUCTIVITY     10.9949  11.0370  11.0791  11.1215  11.1639  11.2065  11.2492  11.2920
 PRANDTL NUMBER    0.7034   0.7033   0.7033   0.7032   0.7031   0.7031   0.7030   0.7030

 MOLE FRACTIONS

 *H               0.00991  0.01028  0.01065  0.01104  0.01144  0.01186  0.01228  0.01271
 *H2              0.99009  0.98972  0.98935  0.98896  0.98856  0.98814  0.98772  0.98729

  * THERMODYNAMIC PROPERTIES FITTED TO 20000.K

 NOTE. WEIGHT FRACTION OF FUEL IN TOTAL FUELS AND OF OXIDANT IN TOTAL OXIDANTS









               THERMODYNAMIC EQUILIBRIUM PROPERTIES AT ASSIGNED

                           TEMPERATURE AND PRESSURE

 CASE =                

             REACTANT                    WT FRACTION      ENERGY      TEMP
                                          (SEE NOTE)     KJ/KG-MOL      K  
             H2                           1.0000000         0.000      0.000

 O/F=    0.00000  %FUEL=100.000000  R,EQ.RATIO= 0.000000  PHI,EQ.RATIO= 0.000000

 THERMODYNAMIC PROPERTIES

 P, BAR            44.000   44.000   44.000   49.000   49.000   49.000   49.000   49.000
 T, K             2820.00  2830.00  2840.00  2700.00  2710.00  2720.00  2730.00  2740.00
 RHO, KG/CU M    3.7581-1 3.7439-1 3.7298-1 4.3823-1 4.3654-1 4.3487-1 4.3320-1 4.3155-1
 H, KJ/KG         42231.2  42466.3  42703.0  39474.3  39690.3  39907.5  40125.9  40345.7
 U, KJ/KG         30523.1  30713.9  30906.3  28292.8  28465.7  28639.7  28814.8  28991.2
 G, KJ/KG       -196043.3-196888.6-197734.8-184759.5-185590.4-186422.0-187254.5-188087.8
 S, KJ/(KG)(K)    84.4945  84.5777  84.6612  83.0495  83.1294  83.2094  83.2896  83.3699

 M, (1/n)           2.003    2.002    2.002    2.008    2.007    2.007    2.007    2.006
 (dLV/dLP)t      -1.00329 -1.00341 -1.00352 -1.00202 -1.00210 -1.00218 -1.00226 -1.00235
 (dLV/dLT)p        1.0644   1.0664   1.0685   1.0413   1.0427   1.0442   1.0457   1.0472
 Cp, KJ/(KG)(K)   23.4298  23.5891  23.7513  21.5392  21.6601  21.7835  21.9092  22.0375
 GAMMAs            1.2460   1.2450   1.2440   1.2602   1.2592   1.2581   1.2571   1.2561
 SON VEL,M/SEC     3819.5   3825.2   3830.8   3753.7   3759.5   3765.2   3770.9   3776.5

 TRANSPORT PROPERTIES (GASES ONLY)
   CONDUCTIVITY IN UNITS OF MILLIWATTS/(CM)(K)

 VISC,MILLIPOISE  0.43776  0.43909  0.44042  0.42199  0.42327  0.42456  0.42585  0.42714

  WITH EQUILIBRIUM REACTIONS

 Cp, KJ/(KG)(K)   23.4298  23.5891  23.7513  21.5392  21.6601  21.7835  21.9092  22.0375
 CONDUCTIVITY     17.6602  17.8991  18.1427  14.9037  15.0840  15.2680  15.4558  15.6474
 PRANDTL NUMBER    0.5808   0.5787   0.5766   0.6099   0.6078   0.6057   0.6037   0.6016

  WITH FROZEN REACTIONS

 Cp, KJ/(KG)(K)   18.2004  18.2128  18.2252  18.0476  18.0605  18.0733  18.0861  18.0989
 CONDUCTIVITY     11.3350  11.3781  11.4214  10.8238  10.8652  10.9067  10.9484  10.9901
 PRANDTL NUMBER    0.7029   0.7028   0.7028   0.7036   0.7036   0.7035   0.7035   0.7034

 MOLE FRACTIONS

 *H               0.01316  0.01362  0.01409  0.00810  0.00841  0.00873  0.00905  0.00939
 *H2              0.98684  0.98638  0.98591  0.99190  0.99159  0.99127  0.99095  0.99061

  * THERMODYNAMIC PROPERTIES FITTED TO 20000.K

 NOTE. WEIGHT FRACTION OF FUEL IN TOTAL FUELS AND OF OXIDANT IN TOTAL OXIDANTS









               THERMODYNAMIC EQUILIBRIUM PROPERTIES AT ASSIGNED

                           TEMPERATURE AND PRESSURE

 CASE =                

             REACTANT                    WT FRACTION      ENERGY      TEMP
                                          (SEE NOTE)     KJ/KG-MOL      K  
             H2                           1.0000000         0.000      0.000

 O/F=    0.00000  %FUEL=100.000000  R,EQ.RATIO= 0.000000  PHI,EQ.RATIO= 0.000000

 THERMODYNAMIC PROPERTIES

 P, BAR            49.000   49.000   49.000   49.000   49.000   49.000   49.000   49.000
 T, K             2750.00  2760.00  2770.00  2780.00  2790.00  2800.00  2810.00  2820.00
 RHO, KG/CU M    4.2990-1 4.2827-1 4.2664-1 4.2503-1 4.2342-1 4.2182-1 4.2024-1 4.1866-1
 H, KJ/KG         40566.7  40789.0  41012.7  41237.8  41464.3  41692.1  41921.5  42152.3
 U, KJ/KG         29168.8  29347.6  29527.7  29709.1  29891.9  30075.9  30261.3  30448.1
 G, KJ/KG       -188921.9-189756.8-190592.6-191429.1-192266.4-193104.6-193943.5-194783.3
 S, KJ/(KG)(K)    83.4504  83.5311  83.6120  83.6931  83.7744  83.8560  83.9377  84.0197

 M, (1/n)           2.006    2.006    2.005    2.005    2.005    2.004    2.004    2.003
 (dLV/dLP)t      -1.00244 -1.00252 -1.00262 -1.00271 -1.00281 -1.00291 -1.00301 -1.00312
 (dLV/dLT)p        1.0488   1.0504   1.0521   1.0538   1.0555   1.0573   1.0592   1.0610
 Cp, KJ/(KG)(K)   22.1682  22.3014  22.4371  22.5755  22.7164  22.8599  23.0061  23.1550
 GAMMAs            1.2551   1.2540   1.2530   1.2520   1.2510   1.2500   1.2489   1.2479
 SON VEL,M/SEC     3782.2   3787.9   3793.5   3799.2   3804.8   3810.5   3816.1   3821.8

 TRANSPORT PROPERTIES (GASES ONLY)
   CONDUCTIVITY IN UNITS OF MILLIWATTS/(CM)(K)

 VISC,MILLIPOISE  0.42844  0.42974  0.43104  0.43234  0.43365  0.43496  0.43627  0.43759

  WITH EQUILIBRIUM REACTIONS

 Cp, KJ/(KG)(K)   22.1682  22.3014  22.4371  22.5755  22.7164  22.8599  23.0061  23.1550
 CONDUCTIVITY     15.8428  16.0422  16.2456  16.4530  16.6646  16.8803  17.1002  17.3245
 PRANDTL NUMBER    0.5995   0.5974   0.5953   0.5932   0.5911   0.5890   0.5869   0.5849

  WITH FROZEN REACTIONS

 Cp, KJ/(KG)(K)   18.1116  18.1243  18.1369  18.1495  18.1621  18.1746  18.1871  18.1995
 CONDUCTIVITY     11.0320  11.0740  11.1161  11.1583  11.2007  11.2432  11.2858  11.3286
 PRANDTL NUMBER    0.7034   0.7033   0.7033   0.7032   0.7032   0.7031   0.7031   0.7030

 MOLE FRACTIONS

 *H               0.00974  0.01010  0.01047  0.01085  0.01124  0.01164  0.01205  0.01248
 *H2              0.99026  0.98990  0.98953  0.98915  0.98876  0.98836  0.98795  0.98752

  * THERMODYNAMIC PROPERTIES FITTED TO 20000.K

 NOTE. WEIGHT FRACTION OF FUEL IN TOTAL FUELS AND OF OXIDANT IN TOTAL OXIDANTS









               THERMODYNAMIC EQUILIBRIUM PROPERTIES AT ASSIGNED

                           TEMPERATURE AND PRESSURE

 CASE =                

             REACTANT                    WT FRACTION      ENERGY      TEMP
                                          (SEE NOTE)     KJ/KG-MOL      K  
             H2                           1.0000000         0.000      0.000

 O/F=    0.00000  %FUEL=100.000000  R,EQ.RATIO= 0.000000  PHI,EQ.RATIO= 0.000000

 THERMODYNAMIC PROPERTIES

 P, BAR            49.000   49.000   54.000   54.000   54.000   54.000   54.000   54.000
 T, K             2830.00  2840.00  2700.00  2710.00  2720.00  2730.00  2740.00  2750.00
 RHO, KG/CU M    4.1709-1 4.1552-1 4.8304-1 4.8118-1 4.7934-1 4.7751-1 4.7569-1 4.7388-1
 H, KJ/KG         42384.6  42618.4  39430.5  39644.8  39860.2  40076.9  40294.8  40513.9
 U, KJ/KG         30636.4  30826.0  28251.2  28422.4  28594.8  28768.2  28942.9  29118.7
 G, KJ/KG       -195623.9-196465.4-183673.2-184499.8-185327.3-186155.6-186984.7-187814.6
 S, KJ/(KG)(K)    84.1019  84.1844  82.6310  82.7102  82.7896  82.8691  82.9487  83.0286

 M, (1/n)           2.003    2.002    2.008    2.008    2.007    2.007    2.007    2.007
 (dLV/dLP)t      -1.00323 -1.00334 -1.00193 -1.00200 -1.00208 -1.00216 -1.00224 -1.00232
 (dLV/dLT)p        1.0629   1.0649   1.0394   1.0407   1.0421   1.0435   1.0450   1.0465
 Cp, KJ/(KG)(K)   23.3066  23.4610  21.3731  21.4889  21.6070  21.7274  21.8501  21.9752
 GAMMAs            1.2469   1.2459   1.2616   1.2606   1.2596   1.2586   1.2576   1.2566
 SON VEL,M/SEC     3827.4   3833.0   3755.5   3761.2   3766.9   3772.7   3778.4   3784.1

 TRANSPORT PROPERTIES (GASES ONLY)
   CONDUCTIVITY IN UNITS OF MILLIWATTS/(CM)(K)

 VISC,MILLIPOISE  0.43891  0.44024  0.42189  0.42317  0.42446  0.42574  0.42703  0.42832

  WITH EQUILIBRIUM REACTIONS

 Cp, KJ/(KG)(K)   23.3066  23.4610  21.3731  21.4889  21.6070  21.7274  21.8501  21.9752
 CONDUCTIVITY     17.5531  17.7861  14.7075  14.8811  15.0583  15.2390  15.4234  15.6115
 PRANDTL NUMBER    0.5828   0.5807   0.6131   0.6111   0.6091   0.6070   0.6050   0.6029

  WITH FROZEN REACTIONS

 Cp, KJ/(KG)(K)   18.2120  18.2243  18.0471  18.0599  18.0728  18.0855  18.0983  18.1110
 CONDUCTIVITY     11.3715  11.4145  10.8203  10.8616  10.9029  10.9444  10.9860  11.0277
 PRANDTL NUMBER    0.7029   0.7029   0.7037   0.7036   0.7036   0.7035   0.7035   0.7034

 MOLE FRACTIONS

 *H               0.01291  0.01336  0.00772  0.00801  0.00831  0.00863  0.00895  0.00928
 *H2              0.98709  0.98664  0.99228  0.99199  0.99169  0.99137  0.99105  0.99072

  * THERMODYNAMIC PROPERTIES FITTED TO 20000.K

 NOTE. WEIGHT FRACTION OF FUEL IN TOTAL FUELS AND OF OXIDANT IN TOTAL OXIDANTS









               THERMODYNAMIC EQUILIBRIUM PROPERTIES AT ASSIGNED

                           TEMPERATURE AND PRESSURE

 CASE =                

             REACTANT                    WT FRACTION      ENERGY      TEMP
                                          (SEE NOTE)     KJ/KG-MOL      K  
             H2                           1.0000000         0.000      0.000

 O/F=    0.00000  %FUEL=100.000000  R,EQ.RATIO= 0.000000  PHI,EQ.RATIO= 0.000000

 THERMODYNAMIC PROPERTIES

 P, BAR            54.000   54.000   54.000   54.000   54.000   54.000   54.000   54.000
 T, K             2760.00  2770.00  2780.00  2790.00  2800.00  2810.00  2820.00  2830.00
 RHO, KG/CU M    4.7208-1 4.7030-1 4.6852-1 4.6675-1 4.6500-1 4.6325-1 4.6151-1 4.5979-1
 H, KJ/KG         40734.3  40956.0  41179.0  41403.3  41629.0  41856.0  42084.5  42314.4
 U, KJ/KG         29295.6  29473.8  29653.3  29834.0  30016.0  30199.2  30383.9  30569.8
 G, KJ/KG       -188645.3-189476.8-190309.1-191142.2-191976.1-192810.8-193646.3-194482.6
 S, KJ/(KG)(K)    83.1086  83.1887  83.2691  83.3496  83.4304  83.5113  83.5925  83.6739

 M, (1/n)           2.006    2.006    2.005    2.005    2.005    2.004    2.004    2.003
 (dLV/dLP)t      -1.00241 -1.00249 -1.00258 -1.00268 -1.00277 -1.00287 -1.00297 -1.00308
 (dLV/dLT)p        1.0481   1.0496   1.0513   1.0529   1.0546   1.0564   1.0581   1.0600
 Cp, KJ/(KG)(K)   22.1027  22.2326  22.3649  22.4998  22.6371  22.7769  22.9193  23.0643
 GAMMAs            1.2556   1.2546   1.2536   1.2526   1.2516   1.2506   1.2496   1.2486
 SON VEL,M/SEC     3789.8   3795.4   3801.1   3806.8   3812.4   3818.1   3823.7   3829.4

 TRANSPORT PROPERTIES (GASES ONLY)
   CONDUCTIVITY IN UNITS OF MILLIWATTS/(CM)(K)

 VISC,MILLIPOISE  0.42962  0.43092  0.43221  0.43352  0.43482  0.43613  0.43744  0.43876

  WITH EQUILIBRIUM REACTIONS

 Cp, KJ/(KG)(K)   22.1027  22.2326  22.3649  22.4998  22.6371  22.7769  22.9193  23.0643
 CONDUCTIVITY     15.8033  15.9990  16.1985  16.4019  16.6093  16.8208  17.0364  17.2561
 PRANDTL NUMBER    0.6009   0.5988   0.5968   0.5947   0.5926   0.5906   0.5885   0.5864

  WITH FROZEN REACTIONS

 Cp, KJ/(KG)(K)   18.1236  18.1363  18.1489  18.1614  18.1739  18.1864  18.1988  18.2112
 CONDUCTIVITY     11.0696  11.1115  11.1536  11.1957  11.2381  11.2805  11.3230  11.3657
 PRANDTL NUMBER    0.7034   0.7033   0.7033   0.7032   0.7032   0.7031   0.7031   0.7030

 MOLE FRACTIONS

 *H               0.00962  0.00997  0.01034  0.01071  0.01109  0.01148  0.01189  0.01230
 *H2              0.99038  0.99003  0.98966  0.98929  0.98891  0.98852  0.98811  0.98770

  * THERMODYNAMIC PROPERTIES FITTED TO 20000.K

 NOTE. WEIGHT FRACTION OF FUEL IN TOTAL FUELS AND OF OXIDANT IN TOTAL OXIDANTS









               THERMODYNAMIC EQUILIBRIUM PROPERTIES AT ASSIGNED

                           TEMPERATURE AND PRESSURE

 CASE =                

             REACTANT                    WT FRACTION      ENERGY      TEMP
                                          (SEE NOTE)     KJ/KG-MOL      K  
             H2                           1.0000000         0.000      0.000

 O/F=    0.00000  %FUEL=100.000000  R,EQ.RATIO= 0.000000  PHI,EQ.RATIO= 0.000000

 THERMODYNAMIC PROPERTIES

 P, BAR            54.000
 T, K             2840.00
 RHO, KG/CU M    4.5807-1
 H, KJ/KG         42545.8
 U, KJ/KG         30757.2
 G, KJ/KG       -195319.8
 S, KJ/(KG)(K)    83.7555

 M, (1/n)           2.003
 (dLV/dLP)t      -1.00318
 (dLV/dLT)p        1.0618
 Cp, KJ/(KG)(K)   23.2119
 GAMMAs            1.2476
 SON VEL,M/SEC     3835.0

 TRANSPORT PROPERTIES (GASES ONLY)
   CONDUCTIVITY IN UNITS OF MILLIWATTS/(CM)(K)

 VISC,MILLIPOISE  0.44008

  WITH EQUILIBRIUM REACTIONS

 Cp, KJ/(KG)(K)   23.2119
 CONDUCTIVITY     17.4800
 PRANDTL NUMBER    0.5844

  WITH FROZEN REACTIONS

 Cp, KJ/(KG)(K)   18.2236
 CONDUCTIVITY     11.4086
 PRANDTL NUMBER    0.7030

 MOLE FRACTIONS

 *H               0.01273
 *H2              0.98727

  * THERMODYNAMIC PROPERTIES FITTED TO 20000.K

 NOTE. WEIGHT FRACTION OF FUEL IN TOTAL FUELS AND OF OXIDANT IN TOTAL OXIDANTS



  
