
 *******************************************************************************

         NASA-GLENN CHEMICAL EQUILIBRIUM PROGRAM CEA2, MAY 21, 2004
                   BY  BONNIE MCBRIDE AND SANFORD GORDON
      REFS: NASA RP-1311, PART I, 1994 AND NASA RP-1311, PART II, 1996

 *******************************************************************************



  prob tp ions
  p,bar= 2.5,2.8,3.1,3.5,3.9,4.4,4.9,5.4,6.0,6.7,7.4,8.25,9.1,10.0,11.0
  t,k= 4050,4060,4070,4080,4090,4100,4110,4120,4130,4140,4150,4160,4170,4180,4190
  
  reac
  na H2                wt%=100.0000
  
  output short
  output siunits
  output transport
  
 end





               THERMODYNAMIC EQUILIBRIUM PROPERTIES AT ASSIGNED

                           TEMPERATURE AND PRESSURE

 CASE =                

             REACTANT                    WT FRACTION      ENERGY      TEMP
                                          (SEE NOTE)     KJ/KG-MOL      K  
             H2                           1.0000000         0.000      0.000

 O/F=    0.00000  %FUEL=100.000000  R,EQ.RATIO= 0.000000  PHI,EQ.RATIO= 0.000000

 THERMODYNAMIC PROPERTIES

 P, BAR            2.5000   2.5000   2.5000   2.5000   2.5000   2.5000   2.5000   2.5000
 T, K             4050.00  4060.00  4070.00  4080.00  4090.00  4100.00  4110.00  4120.00
 RHO, KG/CU M    1.0099-2 1.0032-2 9.9648-3 9.8988-3 9.8335-3 9.7689-3 9.7049-3 9.6417-3
 H, KJ/KG        174629.8 176273.6 177917.6 179561.2 181204.0 182845.5 184485.2 186122.7
 U, KJ/KG        149874.8 151352.2 152829.4 154305.7 155780.7 157254.0 158725.1 160193.7
 G, KJ/KG       -368948.3-370291.6-371639.7-372992.0-374348.3-375708.7-377073.0-378441.3
 S, KJ/(KG)(K)   134.2168 134.6220 135.0264 135.4297 135.8319 136.2327 136.6322 137.0301

 M, (1/n)           1.360    1.355    1.349    1.343    1.338    1.332    1.327    1.321
 (dLV/dLP)t      -1.12483 -1.12493 -1.12499 -1.12500 -1.12497 -1.12491 -1.12481 -1.12467
 (dLV/dLT)p        2.7171   2.7142   2.7108   2.7069   2.7025   2.6976   2.6921   2.6862
 Cp, KJ/(KG)(K)  164.3664 164.4005 164.3878 164.3281 164.2215 164.0681 163.8680 163.6212
 GAMMAs            1.1761   1.1767   1.1773   1.1779   1.1785   1.1792   1.1798   1.1805
 SON VEL,M/SEC     5395.7   5415.2   5434.7   5454.2   5473.7   5493.3   5512.9   5532.5

 TRANSPORT PROPERTIES (GASES ONLY)
   CONDUCTIVITY IN UNITS OF MILLIWATTS/(CM)(K)

 VISC,MILLIPOISE  0.64150  0.64149  0.64145  0.64138  0.64127  0.64112  0.64094  0.64072

  WITH EQUILIBRIUM REACTIONS

 Cp, KJ/(KG)(K)  164.3663 164.4003 164.3878 164.3281 164.2215 164.0681 163.8680 163.6212
 CONDUCTIVITY    179.7862 179.4779 179.1198 178.7118 178.2546 177.7486 177.1946 176.5932
 PRANDTL NUMBER    0.5865   0.5876   0.5887   0.5898   0.5908   0.5918   0.5927   0.5937

  WITH FROZEN REACTIONS

 Cp, KJ/(KG)(K)   20.0073  20.0193  20.0313  20.0431  20.0549  20.0664  20.0779  20.0893
 CONDUCTIVITY     17.7501  17.7548  17.7591  17.7627  17.7656  17.7679  17.7695  17.7705
 PRANDTL NUMBER    0.7231   0.7233   0.7235   0.7237   0.7239   0.7241   0.7242   0.7243

 MOLE FRACTIONS

 *H               0.65043  0.65613  0.66178  0.66738  0.67293  0.67843  0.68388  0.68927
 *H2              0.34956  0.34387  0.33822  0.33262  0.32707  0.32157  0.31612  0.31073

  * THERMODYNAMIC PROPERTIES FITTED TO 20000.K

 NOTE. WEIGHT FRACTION OF FUEL IN TOTAL FUELS AND OF OXIDANT IN TOTAL OXIDANTS









               THERMODYNAMIC EQUILIBRIUM PROPERTIES AT ASSIGNED

                           TEMPERATURE AND PRESSURE

 CASE =                

             REACTANT                    WT FRACTION      ENERGY      TEMP
                                          (SEE NOTE)     KJ/KG-MOL      K  
             H2                           1.0000000         0.000      0.000

 O/F=    0.00000  %FUEL=100.000000  R,EQ.RATIO= 0.000000  PHI,EQ.RATIO= 0.000000

 THERMODYNAMIC PROPERTIES

 P, BAR            2.5000   2.5000   2.5000   2.5000   2.5000   2.5000   2.5000   2.8000
 T, K             4130.00  4140.00  4150.00  4160.00  4170.00  4180.00  4190.00  4050.00
 RHO, KG/CU M    9.5792-3 9.5174-3 9.4563-3 9.3959-3 9.3363-3 9.2773-3 9.2191-3 1.1472-2
 H, KJ/KG        187757.5 189389.1 191017.1 192641.0 194260.4 195874.9 197483.9 169856.4
 U, KJ/KG        161659.3 163121.5 164579.8 166033.8 167483.2 168927.4 170366.2 145448.4
 G, KJ/KG       -379813.6-381189.8-382570.0-383954.1-385342.1-386733.9-388129.7-366161.6
 S, KJ/(KG)(K)   137.4264 137.8210 138.2138 138.6046 138.9934 139.3801 139.7646 132.3501

 M, (1/n)           1.316    1.310    1.305    1.300    1.295    1.290    1.285    1.380
 (dLV/dLP)t      -1.12448 -1.12427 -1.12401 -1.12371 -1.12338 -1.12301 -1.12261 -1.12425
 (dLV/dLT)p        2.6797   2.6728   2.6654   2.6575   2.6492   2.6404   2.6312   2.7090
 Cp, KJ/(KG)(K)  163.3281 162.9890 162.6042 162.1741 161.6992 161.1801 160.6175 161.6446
 GAMMAs            1.1811   1.1818   1.1825   1.1832   1.1839   1.1846   1.1853   1.1756
 SON VEL,M/SEC     5552.0   5571.6   5591.2   5610.8   5630.4   5650.0   5669.5   5356.6

 TRANSPORT PROPERTIES (GASES ONLY)
   CONDUCTIVITY IN UNITS OF MILLIWATTS/(CM)(K)

 VISC,MILLIPOISE  0.64048  0.64020  0.63989  0.63956  0.63919  0.63880  0.63838  0.64566

  WITH EQUILIBRIUM REACTIONS

 Cp, KJ/(KG)(K)  163.3281 162.9890 162.6042 162.1741 161.6992 161.1801 160.6174 161.6445
 CONDUCTIVITY    175.9450 175.2510 174.5119 173.7287 172.9022 172.0335 171.1236 179.1298
 PRANDTL NUMBER    0.5945   0.5954   0.5962   0.5970   0.5978   0.5985   0.5992   0.5826

  WITH FROZEN REACTIONS

 Cp, KJ/(KG)(K)   20.1005  20.1115  20.1225  20.1333  20.1439  20.1545  20.1649  19.9826
 CONDUCTIVITY     17.7709  17.7708  17.7701  17.7689  17.7672  17.7651  17.7625  17.8602
 PRANDTL NUMBER    0.7244   0.7245   0.7246   0.7247   0.7247   0.7247   0.7247   0.7224

 MOLE FRACTIONS

 *H               0.69461  0.69989  0.70511  0.71028  0.71539  0.72044  0.72543  0.63125
 *H2              0.30539  0.30011  0.29489  0.28972  0.28461  0.27956  0.27457  0.36875

  * THERMODYNAMIC PROPERTIES FITTED TO 20000.K

 NOTE. WEIGHT FRACTION OF FUEL IN TOTAL FUELS AND OF OXIDANT IN TOTAL OXIDANTS









               THERMODYNAMIC EQUILIBRIUM PROPERTIES AT ASSIGNED

                           TEMPERATURE AND PRESSURE

 CASE =                

             REACTANT                    WT FRACTION      ENERGY      TEMP
                                          (SEE NOTE)     KJ/KG-MOL      K  
             H2                           1.0000000         0.000      0.000

 O/F=    0.00000  %FUEL=100.000000  R,EQ.RATIO= 0.000000  PHI,EQ.RATIO= 0.000000

 THERMODYNAMIC PROPERTIES

 P, BAR            2.8000   2.8000   2.8000   2.8000   2.8000   2.8000   2.8000   2.8000
 T, K             4060.00  4070.00  4080.00  4090.00  4100.00  4110.00  4120.00  4130.00
 RHO, KG/CU M    1.1395-2 1.1320-2 1.1245-2 1.1171-2 1.1097-2 1.1025-2 1.0953-2 1.0881-2
 H, KJ/KG        171473.7 173092.6 174712.7 176333.3 177954.2 179574.9 181194.8 182813.7
 U, KJ/KG        146902.2 148356.9 149812.2 151267.5 152722.6 154176.9 155630.2 157081.9
 G, KJ/KG       -367487.1-368816.6-370150.0-371487.4-372828.8-374174.2-375523.5-376876.7
 S, KJ/(KG)(K)   132.7490 133.1472 133.5448 133.9415 134.3373 134.7321 135.1258 135.5183

 M, (1/n)           1.374    1.368    1.362    1.357    1.351    1.345    1.340    1.334
 (dLV/dLP)t      -1.12447 -1.12465 -1.12479 -1.12490 -1.12497 -1.12500 -1.12499 -1.12494
 (dLV/dLT)p        2.7079   2.7062   2.7041   2.7015   2.6984   2.6947   2.6906   2.6859
 Cp, KJ/(KG)(K)  161.8208 161.9531 162.0412 162.0849 162.0842 162.0388 161.9489 161.8143
 GAMMAs            1.1762   1.1767   1.1773   1.1779   1.1785   1.1791   1.1798   1.1804
 SON VEL,M/SEC     5375.9   5395.1   5414.4   5433.7   5453.1   5472.5   5491.8   5511.2

 TRANSPORT PROPERTIES (GASES ONLY)
   CONDUCTIVITY IN UNITS OF MILLIWATTS/(CM)(K)

 VISC,MILLIPOISE  0.64580  0.64589  0.64595  0.64597  0.64596  0.64591  0.64582  0.64570

  WITH EQUILIBRIUM REACTIONS

 Cp, KJ/(KG)(K)  161.8208 161.9531 162.0412 162.0849 162.0842 162.0388 161.9489 161.8143
 CONDUCTIVITY    178.9908 178.8026 178.5656 178.2799 177.9460 177.5643 177.1351 176.6590
 PRANDTL NUMBER    0.5838   0.5850   0.5862   0.5873   0.5884   0.5894   0.5905   0.5914

  WITH FROZEN REACTIONS

 Cp, KJ/(KG)(K)   19.9947  20.0067  20.0186  20.0304  20.0421  20.0537  20.0651  20.0765
 CONDUCTIVITY     17.8680  17.8750  17.8812  17.8867  17.8914  17.8954  17.8988  17.9014
 PRANDTL NUMBER    0.7227   0.7229   0.7232   0.7234   0.7236   0.7238   0.7240   0.7242

 MOLE FRACTIONS

 *H               0.63700  0.64271  0.64838  0.65400  0.65958  0.66511  0.67059  0.67602
 *H2              0.36300  0.35729  0.35162  0.34600  0.34042  0.33489  0.32941  0.32398

  * THERMODYNAMIC PROPERTIES FITTED TO 20000.K

 NOTE. WEIGHT FRACTION OF FUEL IN TOTAL FUELS AND OF OXIDANT IN TOTAL OXIDANTS









               THERMODYNAMIC EQUILIBRIUM PROPERTIES AT ASSIGNED

                           TEMPERATURE AND PRESSURE

 CASE =                

             REACTANT                    WT FRACTION      ENERGY      TEMP
                                          (SEE NOTE)     KJ/KG-MOL      K  
             H2                           1.0000000         0.000      0.000

 O/F=    0.00000  %FUEL=100.000000  R,EQ.RATIO= 0.000000  PHI,EQ.RATIO= 0.000000

 THERMODYNAMIC PROPERTIES

 P, BAR            2.8000   2.8000   2.8000   2.8000   2.8000   2.8000   3.1000   3.1000
 T, K             4140.00  4150.00  4160.00  4170.00  4180.00  4190.00  4050.00  4060.00
 RHO, KG/CU M    1.0811-2 1.0741-2 1.0673-2 1.0605-2 1.0537-2 1.0471-2 1.2862-2 1.2777-2
 H, KJ/KG        184431.0 186046.2 187659.1 189269.0 190875.6 192478.4 165651.4 167241.5
 U, KJ/KG        158531.6 159979.0 161423.7 162865.1 164303.0 165736.9 141549.2 142978.4
 G, KJ/KG       -378233.8-379594.9-380959.8-382328.6-383701.3-385077.8-363692.9-365001.9
 S, KJ/(KG)(K)   135.9094 136.2991 136.6872 137.0738 137.4586 137.8416 130.7023 131.0944

 M, (1/n)           1.329    1.324    1.318    1.313    1.308    1.303    1.397    1.391
 (dLV/dLP)t      -1.12486 -1.12474 -1.12458 -1.12438 -1.12415 -1.12388 -1.12337 -1.12370
 (dLV/dLT)p        2.6808   2.6752   2.6691   2.6626   2.6555   2.6481   2.6969   2.6973
 Cp, KJ/(KG)(K)  161.6352 161.4117 161.1440 160.8324 160.4772 160.0788 158.8602 159.1514
 GAMMAs            1.1810   1.1817   1.1824   1.1830   1.1837   1.1844   1.1752   1.1758
 SON VEL,M/SEC     5530.7   5550.1   5569.5   5589.0   5608.4   5627.9   5322.2   5341.1

 TRANSPORT PROPERTIES (GASES ONLY)
   CONDUCTIVITY IN UNITS OF MILLIWATTS/(CM)(K)

 VISC,MILLIPOISE  0.64555  0.64537  0.64515  0.64490  0.64462  0.64431  0.64903  0.64929

  WITH EQUILIBRIUM REACTIONS

 Cp, KJ/(KG)(K)  161.6352 161.4117 161.1440 160.8324 160.4772 160.0787 158.8601 159.1514
 CONDUCTIVITY    176.1366 175.5685 174.9553 174.2978 173.5968 172.8530 178.0825 178.0876
 PRANDTL NUMBER    0.5924   0.5933   0.5942   0.5951   0.5959   0.5967   0.5790   0.5803

  WITH FROZEN REACTIONS

 Cp, KJ/(KG)(K)   20.0877  20.0987  20.1097  20.1205  20.1312  20.1417  19.9608  19.9730
 CONDUCTIVITY     17.9035  17.9049  17.9058  17.9061  17.9058  17.9051  17.9524  17.9628
 PRANDTL NUMBER    0.7243   0.7244   0.7246   0.7247   0.7247   0.7248   0.7216   0.7220

 MOLE FRACTIONS

 *H               0.68140  0.68672  0.69200  0.69722  0.70239  0.70750  0.61389  0.61968
 *H2              0.31860  0.31328  0.30800  0.30278  0.29761  0.29250  0.38611  0.38032

  * THERMODYNAMIC PROPERTIES FITTED TO 20000.K

 NOTE. WEIGHT FRACTION OF FUEL IN TOTAL FUELS AND OF OXIDANT IN TOTAL OXIDANTS









               THERMODYNAMIC EQUILIBRIUM PROPERTIES AT ASSIGNED

                           TEMPERATURE AND PRESSURE

 CASE =                

             REACTANT                    WT FRACTION      ENERGY      TEMP
                                          (SEE NOTE)     KJ/KG-MOL      K  
             H2                           1.0000000         0.000      0.000

 O/F=    0.00000  %FUEL=100.000000  R,EQ.RATIO= 0.000000  PHI,EQ.RATIO= 0.000000

 THERMODYNAMIC PROPERTIES

 P, BAR            3.1000   3.1000   3.1000   3.1000   3.1000   3.1000   3.1000   3.1000
 T, K             4070.00  4080.00  4090.00  4100.00  4110.00  4120.00  4130.00  4140.00
 RHO, KG/CU M    1.2692-2 1.2608-2 1.2525-2 1.2443-2 1.2362-2 1.2281-2 1.2202-2 1.2123-2
 H, KJ/KG        168834.3 170429.4 172026.4 173624.8 175224.3 176824.4 178424.7 180024.7
 U, KJ/KG        144409.7 145842.6 147276.8 148711.8 150147.3 151582.9 153018.2 154452.7
 G, KJ/KG       -366314.8-367631.6-368952.3-370277.0-371605.5-372937.9-374274.2-375614.4
 S, KJ/(KG)(K)   131.4863 131.8777 132.2686 132.6590 133.0486 133.4375 133.8254 134.2124

 M, (1/n)           1.385    1.380    1.374    1.368    1.363    1.357    1.352    1.346
 (dLV/dLP)t      -1.12399 -1.12424 -1.12446 -1.12464 -1.12479 -1.12489 -1.12496 -1.12500
 (dLV/dLT)p        2.6972   2.6966   2.6955   2.6939   2.6918   2.6893   2.6862   2.6827
 Cp, KJ/(KG)(K)  159.4015 159.6103 159.7774 159.9025 159.9854 160.0258 160.0237 159.9790
 GAMMAs            1.1763   1.1769   1.1775   1.1780   1.1786   1.1792   1.1798   1.1805
 SON VEL,M/SEC     5360.2   5379.2   5398.3   5417.4   5436.6   5455.8   5475.0   5494.2

 TRANSPORT PROPERTIES (GASES ONLY)
   CONDUCTIVITY IN UNITS OF MILLIWATTS/(CM)(K)

 VISC,MILLIPOISE  0.64951  0.64970  0.64984  0.64995  0.65002  0.65005  0.65005  0.65002

  WITH EQUILIBRIUM REACTIONS

 Cp, KJ/(KG)(K)  159.4015 159.6103 159.7774 159.9025 159.9854 160.0258 160.0237 159.9790
 CONDUCTIVITY    178.0449 177.9547 177.8170 177.6321 177.4001 177.1213 176.7960 176.4246
 PRANDTL NUMBER    0.5815   0.5827   0.5839   0.5851   0.5862   0.5873   0.5884   0.5894

  WITH FROZEN REACTIONS

 Cp, KJ/(KG)(K)   19.9850  19.9970  20.0089  20.0206  20.0322  20.0438  20.0552  20.0664
 CONDUCTIVITY     17.9723  17.9810  17.9889  17.9961  18.0024  18.0081  18.0130  18.0172
 PRANDTL NUMBER    0.7223   0.7225   0.7228   0.7231   0.7233   0.7235   0.7238   0.7239

 MOLE FRACTIONS

 *H               0.62543  0.63114  0.63681  0.64244  0.64803  0.65357  0.65907  0.66452
 *H2              0.37457  0.36886  0.36319  0.35756  0.35197  0.34643  0.34093  0.33548

  * THERMODYNAMIC PROPERTIES FITTED TO 20000.K

 NOTE. WEIGHT FRACTION OF FUEL IN TOTAL FUELS AND OF OXIDANT IN TOTAL OXIDANTS









               THERMODYNAMIC EQUILIBRIUM PROPERTIES AT ASSIGNED

                           TEMPERATURE AND PRESSURE

 CASE =                

             REACTANT                    WT FRACTION      ENERGY      TEMP
                                          (SEE NOTE)     KJ/KG-MOL      K  
             H2                           1.0000000         0.000      0.000

 O/F=    0.00000  %FUEL=100.000000  R,EQ.RATIO= 0.000000  PHI,EQ.RATIO= 0.000000

 THERMODYNAMIC PROPERTIES

 P, BAR            3.1000   3.1000   3.1000   3.1000   3.1000   3.5000   3.5000   3.5000
 T, K             4150.00  4160.00  4170.00  4180.00  4190.00  4050.00  4060.00  4070.00
 RHO, KG/CU M    1.2044-2 1.1967-2 1.1891-2 1.1815-2 1.1740-2 1.4739-2 1.4642-2 1.4546-2
 H, KJ/KG        181624.1 183222.4 184819.2 186414.1 188006.5 160752.2 162306.1 163863.9
 U, KJ/KG        155886.2 157318.2 158748.3 160176.1 161601.2 137006.1 138402.6 139802.3
 G, KJ/KG       -376958.5-378306.4-379658.1-381013.7-382373.1-360789.5-362079.2-363372.7
 S, KJ/(KG)(K)   134.5982 134.9829 135.3663 135.7483 136.1288 128.7757 129.1589 129.5422

 M, (1/n)           1.341    1.335    1.330    1.325    1.319    1.418    1.412    1.406
 (dLV/dLP)t      -1.12499 -1.12495 -1.12487 -1.12476 -1.12461 -1.12192 -1.12237 -1.12278
 (dLV/dLT)p        2.6786   2.6741   2.6692   2.6637   2.6578   2.6770   2.6791   2.6807
 Cp, KJ/(KG)(K)  159.8915 159.7614 159.5887 159.3736 159.1162 155.1790 155.5912 155.9660
 GAMMAs            1.1811   1.1817   1.1824   1.1830   1.1837   1.1749   1.1754   1.1759
 SON VEL,M/SEC     5513.5   5532.8   5552.0   5571.3   5590.6   5281.9   5300.6   5319.3

 TRANSPORT PROPERTIES (GASES ONLY)
   CONDUCTIVITY IN UNITS OF MILLIWATTS/(CM)(K)

 VISC,MILLIPOISE  0.64994  0.64984  0.64970  0.64953  0.64933  0.65259  0.65300  0.65337

  WITH EQUILIBRIUM REACTIONS

 Cp, KJ/(KG)(K)  159.8915 159.7614 159.5887 159.3736 159.1162 155.1789 155.5912 155.9660
 CONDUCTIVITY    176.0075 175.5452 175.0383 174.4873 173.8929 176.3073 176.4729 176.5932
 PRANDTL NUMBER    0.5904   0.5914   0.5924   0.5933   0.5942   0.5744   0.5757   0.5770

  WITH FROZEN REACTIONS

 Cp, KJ/(KG)(K)   20.0776  20.0887  20.0996  20.1104  20.1211  19.9355  19.9477  19.9597
 CONDUCTIVITY     18.0208  18.0237  18.0259  18.0276  18.0287  18.0531  18.0667  18.0794
 PRANDTL NUMBER    0.7241   0.7243   0.7244   0.7246   0.7247   0.7206   0.7210   0.7213

 MOLE FRACTIONS

 *H               0.66992  0.67528  0.68059  0.68584  0.69105  0.59309  0.59890  0.60468
 *H2              0.33008  0.32472  0.31941  0.31416  0.30895  0.40691  0.40110  0.39532

  * THERMODYNAMIC PROPERTIES FITTED TO 20000.K

 NOTE. WEIGHT FRACTION OF FUEL IN TOTAL FUELS AND OF OXIDANT IN TOTAL OXIDANTS









               THERMODYNAMIC EQUILIBRIUM PROPERTIES AT ASSIGNED

                           TEMPERATURE AND PRESSURE

 CASE =                

             REACTANT                    WT FRACTION      ENERGY      TEMP
                                          (SEE NOTE)     KJ/KG-MOL      K  
             H2                           1.0000000         0.000      0.000

 O/F=    0.00000  %FUEL=100.000000  R,EQ.RATIO= 0.000000  PHI,EQ.RATIO= 0.000000

 THERMODYNAMIC PROPERTIES

 P, BAR            3.5000   3.5000   3.5000   3.5000   3.5000   3.5000   3.5000   3.5000
 T, K             4080.00  4090.00  4100.00  4110.00  4120.00  4130.00  4140.00  4150.00
 RHO, KG/CU M    1.4451-2 1.4356-2 1.4262-2 1.4169-2 1.4077-2 1.3986-2 1.3896-2 1.3806-2
 H, KJ/KG        165425.3 166989.8 168557.2 170126.9 171698.7 173272.1 174846.7 176422.2
 U, KJ/KG        141204.9 142609.9 144017.0 145425.9 146836.2 148247.4 149659.4 151071.6
 G, KJ/KG       -364670.0-365971.2-367276.2-368585.0-369897.7-371214.1-372534.4-373858.5
 S, KJ/(KG)(K)   129.9253 130.3083 130.6911 131.0735 131.4554 131.8369 132.2177 132.5977

 M, (1/n)           1.401    1.395    1.389    1.383    1.378    1.372    1.367    1.361
 (dLV/dLP)t      -1.12316 -1.12350 -1.12381 -1.12408 -1.12432 -1.12452 -1.12469 -1.12482
 (dLV/dLT)p        2.6818   2.6824   2.6826   2.6823   2.6815   2.6802   2.6785   2.6763
 Cp, KJ/(KG)(K)  156.3031 156.6020 156.8623 157.0835 157.2654 157.4076 157.5098 157.5720
 GAMMAs            1.1765   1.1770   1.1776   1.1781   1.1787   1.1793   1.1798   1.1804
 SON VEL,M/SEC     5338.0   5356.8   5375.6   5394.5   5413.4   5432.4   5451.3   5470.3

 TRANSPORT PROPERTIES (GASES ONLY)
   CONDUCTIVITY IN UNITS OF MILLIWATTS/(CM)(K)

 VISC,MILLIPOISE  0.65370  0.65399  0.65425  0.65446  0.65464  0.65479  0.65489  0.65496

  WITH EQUILIBRIUM REACTIONS

 Cp, KJ/(KG)(K)  156.3031 156.6020 156.8623 157.0835 157.2654 157.4076 157.5098 157.5720
 CONDUCTIVITY    176.6680 176.6973 176.6811 176.6194 176.5122 176.3597 176.1621 175.9196
 PRANDTL NUMBER    0.5783   0.5796   0.5809   0.5821   0.5833   0.5844   0.5856   0.5867

  WITH FROZEN REACTIONS

 Cp, KJ/(KG)(K)   19.9717  19.9836  19.9954  20.0071  20.0187  20.0301  20.0415  20.0528
 CONDUCTIVITY     18.0912  18.1022  18.1124  18.1218  18.1303  18.1381  18.1451  18.1514
 PRANDTL NUMBER    0.7216   0.7220   0.7223   0.7226   0.7228   0.7231   0.7233   0.7236

 MOLE FRACTIONS

 *H               0.61043  0.61614  0.62181  0.62745  0.63305  0.63861  0.64412  0.64960
 *H2              0.38957  0.38386  0.37819  0.37255  0.36695  0.36139  0.35588  0.35040

  * THERMODYNAMIC PROPERTIES FITTED TO 20000.K

 NOTE. WEIGHT FRACTION OF FUEL IN TOTAL FUELS AND OF OXIDANT IN TOTAL OXIDANTS









               THERMODYNAMIC EQUILIBRIUM PROPERTIES AT ASSIGNED

                           TEMPERATURE AND PRESSURE

 CASE =                

             REACTANT                    WT FRACTION      ENERGY      TEMP
                                          (SEE NOTE)     KJ/KG-MOL      K  
             H2                           1.0000000         0.000      0.000

 O/F=    0.00000  %FUEL=100.000000  R,EQ.RATIO= 0.000000  PHI,EQ.RATIO= 0.000000

 THERMODYNAMIC PROPERTIES

 P, BAR            3.5000   3.5000   3.5000   3.5000   3.9000   3.9000   3.9000   3.9000
 T, K             4160.00  4170.00  4180.00  4190.00  4050.00  4060.00  4070.00  4080.00
 RHO, KG/CU M    1.3718-2 1.3630-2 1.3543-2 1.3457-2 1.6640-2 1.6532-2 1.6424-2 1.6317-2
 H, KJ/KG        177998.0 179573.9 181149.4 182724.1 156498.6 158017.4 159541.0 161069.2
 U, KJ/KG        152483.7 153895.4 155306.2 156715.8 133061.8 134426.5 135795.3 137167.8
 G, KJ/KG       -375186.3-376518.0-377853.5-379192.7-358236.7-359509.5-360786.1-362066.4
 S, KJ/(KG)(K)   132.9770 133.3554 133.7327 134.1090 127.0951 127.4697 127.8445 128.2195

 M, (1/n)           1.356    1.350    1.345    1.339    1.437    1.431    1.425    1.419
 (dLV/dLP)t      -1.12492 -1.12498 -1.12500 -1.12499 -1.12030 -1.12084 -1.12135 -1.12183
 (dLV/dLT)p        2.6736   2.6705   2.6669   2.6628   2.6547   2.6581   2.6611   2.6636
 Cp, KJ/(KG)(K)  157.5939 157.5754 157.5164 157.4170 151.6183 152.1236 152.5950 153.0321
 GAMMAs            1.1810   1.1816   1.1823   1.1829   1.1746   1.1751   1.1756   1.1761
 SON VEL,M/SEC     5489.4   5508.4   5527.5   5546.6   5246.9   5265.2   5283.6   5302.0

 TRANSPORT PROPERTIES (GASES ONLY)
   CONDUCTIVITY IN UNITS OF MILLIWATTS/(CM)(K)

 VISC,MILLIPOISE  0.65500  0.65500  0.65497  0.65490  0.65533  0.65587  0.65637  0.65684

  WITH EQUILIBRIUM REACTIONS

 Cp, KJ/(KG)(K)  157.5939 157.5753 157.5164 157.4170 151.6181 152.1236 152.5950 153.0321
 CONDUCTIVITY    175.6324 175.3009 174.9255 174.5066 174.2809 174.5785 174.8331 175.0446
 PRANDTL NUMBER    0.5877   0.5888   0.5898   0.5908   0.5701   0.5715   0.5729   0.5742

  WITH FROZEN REACTIONS

 Cp, KJ/(KG)(K)   20.0639  20.0749  20.0859  20.0967  19.9135  19.9257  19.9377  19.9497
 CONDUCTIVITY     18.1570  18.1619  18.1661  18.1697  18.1340  18.1506  18.1662  18.1810
 PRANDTL NUMBER    0.7238   0.7240   0.7242   0.7244   0.7196   0.7200   0.7204   0.7207

 MOLE FRACTIONS

 *H               0.65503  0.66042  0.66577  0.67106  0.57453  0.58034  0.58613  0.59188
 *H2              0.34497  0.33958  0.33423  0.32894  0.42547  0.41966  0.41387  0.40812

  * THERMODYNAMIC PROPERTIES FITTED TO 20000.K

 NOTE. WEIGHT FRACTION OF FUEL IN TOTAL FUELS AND OF OXIDANT IN TOTAL OXIDANTS









               THERMODYNAMIC EQUILIBRIUM PROPERTIES AT ASSIGNED

                           TEMPERATURE AND PRESSURE

 CASE =                

             REACTANT                    WT FRACTION      ENERGY      TEMP
                                          (SEE NOTE)     KJ/KG-MOL      K  
             H2                           1.0000000         0.000      0.000

 O/F=    0.00000  %FUEL=100.000000  R,EQ.RATIO= 0.000000  PHI,EQ.RATIO= 0.000000

 THERMODYNAMIC PROPERTIES

 P, BAR            3.9000   3.9000   3.9000   3.9000   3.9000   3.9000   3.9000   3.9000
 T, K             4090.00  4100.00  4110.00  4120.00  4130.00  4140.00  4150.00  4160.00
 RHO, KG/CU M    1.6211-2 1.6106-2 1.6001-2 1.5898-2 1.5795-2 1.5694-2 1.5593-2 1.5493-2
 H, KJ/KG        162601.5 164137.7 165677.4 167220.2 168765.8 170313.8 171863.8 173415.4
 U, KJ/KG        138543.7 139922.8 141304.6 142688.8 144075.1 145463.2 146852.6 148243.1
 G, KJ/KG       -363350.5-364638.3-365929.8-367225.2-368524.2-369827.1-371133.6-372443.9
 S, KJ/(KG)(K)   128.5946 128.9698 129.3448 129.7198 130.0944 130.4688 130.8427 131.2162

 M, (1/n)           1.414    1.408    1.402    1.396    1.391    1.385    1.380    1.374
 (dLV/dLP)t      -1.12227 -1.12268 -1.12306 -1.12341 -1.12372 -1.12400 -1.12425 -1.12446
 (dLV/dLT)p        2.6657   2.6673   2.6685   2.6692   2.6695   2.6693   2.6686   2.6675
 Cp, KJ/(KG)(K)  153.4342 153.8008 154.1315 154.4258 154.6834 154.9037 155.0866 155.2317
 GAMMAs            1.1767   1.1772   1.1777   1.1783   1.1788   1.1794   1.1799   1.1805
 SON VEL,M/SEC     5320.5   5339.1   5357.7   5376.3   5395.0   5413.7   5432.5   5451.3

 TRANSPORT PROPERTIES (GASES ONLY)
   CONDUCTIVITY IN UNITS OF MILLIWATTS/(CM)(K)

 VISC,MILLIPOISE  0.65726  0.65765  0.65800  0.65831  0.65858  0.65882  0.65902  0.65918

  WITH EQUILIBRIUM REACTIONS

 Cp, KJ/(KG)(K)  153.4342 153.8008 154.1315 154.4258 154.6834 154.9037 155.0866 155.2317
 CONDUCTIVITY    175.2127 175.3373 175.4183 175.4556 175.4491 175.3988 175.3049 175.1674
 PRANDTL NUMBER    0.5756   0.5769   0.5782   0.5794   0.5806   0.5818   0.5830   0.5842

  WITH FROZEN REACTIONS

 Cp, KJ/(KG)(K)   19.9616  19.9734  19.9851  19.9968  20.0083  20.0197  20.0310  20.0422
 CONDUCTIVITY     18.1949  18.2079  18.2200  18.2313  18.2418  18.2515  18.2604  18.2686
 PRANDTL NUMBER    0.7211   0.7214   0.7217   0.7221   0.7224   0.7226   0.7229   0.7232

 MOLE FRACTIONS

 *H               0.59761  0.60330  0.60897  0.61460  0.62019  0.62575  0.63127  0.63676
 *H2              0.40239  0.39670  0.39103  0.38540  0.37981  0.37425  0.36873  0.36324

  * THERMODYNAMIC PROPERTIES FITTED TO 20000.K

 NOTE. WEIGHT FRACTION OF FUEL IN TOTAL FUELS AND OF OXIDANT IN TOTAL OXIDANTS









               THERMODYNAMIC EQUILIBRIUM PROPERTIES AT ASSIGNED

                           TEMPERATURE AND PRESSURE

 CASE =                

             REACTANT                    WT FRACTION      ENERGY      TEMP
                                          (SEE NOTE)     KJ/KG-MOL      K  
             H2                           1.0000000         0.000      0.000

 O/F=    0.00000  %FUEL=100.000000  R,EQ.RATIO= 0.000000  PHI,EQ.RATIO= 0.000000

 THERMODYNAMIC PROPERTIES

 P, BAR            3.9000   3.9000   3.9000   4.4000   4.4000   4.4000   4.4000   4.4000
 T, K             4170.00  4180.00  4190.00  4050.00  4060.00  4070.00  4080.00  4090.00
 RHO, KG/CU M    1.5394-2 1.5296-2 1.5199-2 1.9046-2 1.8923-2 1.8801-2 1.8679-2 1.8559-2
 H, KJ/KG        174968.3 176522.0 178076.3 151894.4 153371.4 154854.2 156342.5 157835.9
 U, KJ/KG        149634.3 151025.8 152417.4 128792.3 130119.2 131450.9 132787.2 134127.9
 G, KJ/KG       -373757.9-375075.7-376397.2-355429.8-356684.3-357942.4-359204.2-360469.6
 S, KJ/(KG)(K)   131.5890 131.9612 132.3326 125.2653 125.6295 125.9943 126.3595 126.7251

 M, (1/n)           1.369    1.363    1.358    1.458    1.452    1.446    1.440    1.434
 (dLV/dLP)t      -1.12463 -1.12478 -1.12488 -1.11816 -1.11879 -1.11940 -1.11998 -1.12053
 (dLV/dLT)p        2.6659   2.6639   2.6615   2.6252   2.6300   2.6344   2.6383   2.6419
 Cp, KJ/(KG)(K)  155.3388 155.4077 155.4382 147.4000 147.9933 148.5565 149.0891 149.5904
 GAMMAs            1.1811   1.1817   1.1823   1.1745   1.1749   1.1754   1.1759   1.1764
 SON VEL,M/SEC     5470.1   5489.0   5507.8   5208.9   5226.8   5244.8   5262.9   5281.0

 TRANSPORT PROPERTIES (GASES ONLY)
   CONDUCTIVITY IN UNITS OF MILLIWATTS/(CM)(K)

 VISC,MILLIPOISE  0.65931  0.65940  0.65946  0.65792  0.65860  0.65925  0.65986  0.66043

  WITH EQUILIBRIUM REACTIONS

 Cp, KJ/(KG)(K)  155.3388 155.4077 155.4382 147.3999 147.9933 148.5565 149.0891 149.5904
 CONDUCTIVITY    174.9866 174.7625 174.4954 171.5786 172.0099 172.4013 172.7524 173.0629
 PRANDTL NUMBER    0.5853   0.5864   0.5874   0.5652   0.5666   0.5681   0.5695   0.5709

  WITH FROZEN REACTIONS

 Cp, KJ/(KG)(K)   20.0533  20.0643  20.0752  19.8897  19.9018  19.9139  19.9259  19.9377
 CONDUCTIVITY     18.2760  18.2826  18.2886  18.2142  18.2341  18.2530  18.2711  18.2883
 PRANDTL NUMBER    0.7234   0.7237   0.7239   0.7184   0.7188   0.7192   0.7196   0.7200

 MOLE FRACTIONS

 *H               0.64220  0.64761  0.65297  0.55388  0.55967  0.56544  0.57119  0.57691
 *H2              0.35780  0.35239  0.34703  0.44612  0.44033  0.43456  0.42881  0.42309

  * THERMODYNAMIC PROPERTIES FITTED TO 20000.K

 NOTE. WEIGHT FRACTION OF FUEL IN TOTAL FUELS AND OF OXIDANT IN TOTAL OXIDANTS









               THERMODYNAMIC EQUILIBRIUM PROPERTIES AT ASSIGNED

                           TEMPERATURE AND PRESSURE

 CASE =                

             REACTANT                    WT FRACTION      ENERGY      TEMP
                                          (SEE NOTE)     KJ/KG-MOL      K  
             H2                           1.0000000         0.000      0.000

 O/F=    0.00000  %FUEL=100.000000  R,EQ.RATIO= 0.000000  PHI,EQ.RATIO= 0.000000

 THERMODYNAMIC PROPERTIES

 P, BAR            4.4000   4.4000   4.4000   4.4000   4.4000   4.4000   4.4000   4.4000
 T, K             4100.00  4110.00  4120.00  4130.00  4140.00  4150.00  4160.00  4170.00
 RHO, KG/CU M    1.8440-2 1.8321-2 1.8204-2 1.8087-2 1.7971-2 1.7857-2 1.7743-2 1.7630-2
 H, KJ/KG        159334.2 160837.0 162344.0 163854.9 165369.3 166887.0 168407.4 169930.4
 U, KJ/KG        135472.7 136821.1 138173.1 139528.1 140886.0 142246.4 143608.9 144973.4
 G, KJ/KG       -361738.7-363011.4-364287.8-365567.9-366851.6-368139.0-369430.1-370724.8
 S, KJ/(KG)(K)   127.0909 127.4570 127.8233 128.1895 128.5558 128.9219 129.2879 129.6535

 M, (1/n)           1.429    1.423    1.417    1.412    1.406    1.400    1.395    1.389
 (dLV/dLP)t      -1.12104 -1.12153 -1.12199 -1.12242 -1.12281 -1.12317 -1.12350 -1.12380
 (dLV/dLT)p        2.6450   2.6477   2.6500   2.6518   2.6532   2.6542   2.6547   2.6548
 Cp, KJ/(KG)(K)  150.0598 150.4969 150.9011 151.2719 151.6088 151.9115 152.1795 152.4124
 GAMMAs            1.1769   1.1774   1.1779   1.1784   1.1789   1.1795   1.1800   1.1806
 SON VEL,M/SEC     5299.2   5317.5   5335.8   5354.2   5372.6   5391.0   5409.5   5428.1

 TRANSPORT PROPERTIES (GASES ONLY)
   CONDUCTIVITY IN UNITS OF MILLIWATTS/(CM)(K)

 VISC,MILLIPOISE  0.66096  0.66146  0.66191  0.66233  0.66271  0.66306  0.66337  0.66364

  WITH EQUILIBRIUM REACTIONS

 Cp, KJ/(KG)(K)  150.0598 150.4969 150.9011 151.2719 151.6088 151.9115 152.1795 152.4124
 CONDUCTIVITY    173.3325 173.5610 173.7481 173.8937 173.9976 174.0597 174.0800 174.0584
 PRANDTL NUMBER    0.5722   0.5736   0.5749   0.5762   0.5774   0.5787   0.5799   0.5811

  WITH FROZEN REACTIONS

 Cp, KJ/(KG)(K)   19.9495  19.9613  19.9729  19.9844  19.9959  20.0072  20.0185  20.0296
 CONDUCTIVITY     18.3045  18.3199  18.3344  18.3480  18.3608  18.3728  18.3840  18.3944
 PRANDTL NUMBER    0.7204   0.7207   0.7211   0.7214   0.7217   0.7220   0.7223   0.7226

 MOLE FRACTIONS

 *H               0.58261  0.58829  0.59393  0.59955  0.60514  0.61069  0.61621  0.62170
 *H2              0.41739  0.41171  0.40607  0.40045  0.39486  0.38931  0.38379  0.37830

  * THERMODYNAMIC PROPERTIES FITTED TO 20000.K

 NOTE. WEIGHT FRACTION OF FUEL IN TOTAL FUELS AND OF OXIDANT IN TOTAL OXIDANTS









               THERMODYNAMIC EQUILIBRIUM PROPERTIES AT ASSIGNED

                           TEMPERATURE AND PRESSURE

 CASE =                

             REACTANT                    WT FRACTION      ENERGY      TEMP
                                          (SEE NOTE)     KJ/KG-MOL      K  
             H2                           1.0000000         0.000      0.000

 O/F=    0.00000  %FUEL=100.000000  R,EQ.RATIO= 0.000000  PHI,EQ.RATIO= 0.000000

 THERMODYNAMIC PROPERTIES

 P, BAR            4.4000   4.4000   4.9000   4.9000   4.9000   4.9000   4.9000   4.9000
 T, K             4180.00  4190.00  4050.00  4060.00  4070.00  4080.00  4090.00  4100.00
 RHO, KG/CU M    1.7519-2 1.7408-2 2.1479-2 2.1342-2 2.1206-2 2.1070-2 2.0936-2 2.0803-2
 H, KJ/KG        171455.6 172982.5 147915.1 149353.1 150797.5 152248.0 153704.5 155166.6
 U, KJ/KG        146339.3 147706.4 125102.3 126393.6 127690.5 128992.6 130299.8 131611.8
 G, KJ/KG       -372023.1-373325.1-352959.0-354197.5-355439.5-356685.1-357934.3-359187.0
 S, KJ/(KG)(K)   130.0188 130.3837 123.6726 124.0272 124.3826 124.7385 125.0951 125.4521

 M, (1/n)           1.384    1.378    1.476    1.470    1.464    1.459    1.453    1.447
 (dLV/dLP)t      -1.12407 -1.12430 -1.11598 -1.11669 -1.11737 -1.11803 -1.11866 -1.11927
 (dLV/dLT)p        2.6545   2.6537   2.5953   2.6011   2.6067   2.6118   2.6165   2.6209
 Cp, KJ/(KG)(K)  152.6100 152.7720 143.4635 144.1217 144.7532 145.3573 145.9334 146.4809
 GAMMAs            1.1811   1.1817   1.1744   1.1748   1.1753   1.1757   1.1762   1.1767
 SON VEL,M/SEC     5446.6   5465.3   5175.9   5193.5   5211.2   5228.9   5246.7   5264.6

 TRANSPORT PROPERTIES (GASES ONLY)
   CONDUCTIVITY IN UNITS OF MILLIWATTS/(CM)(K)

 VISC,MILLIPOISE  0.66388  0.66408  0.65982  0.66063  0.66140  0.66214  0.66283  0.66349

  WITH EQUILIBRIUM REACTIONS

 Cp, KJ/(KG)(K)  152.6100 152.7720 143.4634 144.1217 144.7532 145.3573 145.9334 146.4809
 CONDUCTIVITY    173.9951 173.8900 168.8162 169.3546 169.8559 170.3197 170.7456 171.1332
 PRANDTL NUMBER    0.5823   0.5834   0.5607   0.5622   0.5637   0.5651   0.5665   0.5679

  WITH FROZEN REACTIONS

 Cp, KJ/(KG)(K)   20.0407  20.0517  19.8691  19.8812  19.8932  19.9052  19.9170  19.9288
 CONDUCTIVITY     18.4040  18.4128  18.2765  18.2994  18.3214  18.3424  18.3625  18.3817
 PRANDTL NUMBER    0.7229   0.7232   0.7173   0.7177   0.7181   0.7186   0.7189   0.7193

 MOLE FRACTIONS

 *H               0.62715  0.63257  0.53554  0.54130  0.54704  0.55277  0.55847  0.56416
 *H2              0.37285  0.36743  0.46446  0.45870  0.45296  0.44723  0.44152  0.43584

  * THERMODYNAMIC PROPERTIES FITTED TO 20000.K

 NOTE. WEIGHT FRACTION OF FUEL IN TOTAL FUELS AND OF OXIDANT IN TOTAL OXIDANTS









               THERMODYNAMIC EQUILIBRIUM PROPERTIES AT ASSIGNED

                           TEMPERATURE AND PRESSURE

 CASE =                

             REACTANT                    WT FRACTION      ENERGY      TEMP
                                          (SEE NOTE)     KJ/KG-MOL      K  
             H2                           1.0000000         0.000      0.000

 O/F=    0.00000  %FUEL=100.000000  R,EQ.RATIO= 0.000000  PHI,EQ.RATIO= 0.000000

 THERMODYNAMIC PROPERTIES

 P, BAR            4.9000   4.9000   4.9000   4.9000   4.9000   4.9000   4.9000   4.9000
 T, K             4110.00  4120.00  4130.00  4140.00  4150.00  4160.00  4170.00  4180.00
 RHO, KG/CU M    2.0670-2 2.0538-2 2.0408-2 2.0278-2 2.0150-2 2.0022-2 1.9896-2 1.9771-2
 H, KJ/KG        156634.0 158106.5 159583.7 161065.3 162551.1 164040.6 165533.6 167029.8
 U, KJ/KG        132928.2 134248.9 135573.5 136901.7 138233.3 139568.0 140905.5 142245.4
 G, KJ/KG       -360443.3-361703.2-362966.7-364233.7-365504.4-366778.6-368056.4-369337.8
 S, KJ/(KG)(K)   125.8096 126.1674 126.5255 126.8838 127.2423 127.6008 127.9592 128.3176

 M, (1/n)           1.442    1.436    1.430    1.425    1.419    1.413    1.408    1.402
 (dLV/dLP)t      -1.11984 -1.12039 -1.12091 -1.12140 -1.12186 -1.12229 -1.12268 -1.12305
 (dLV/dLT)p        2.6248   2.6283   2.6315   2.6342   2.6365   2.6384   2.6399   2.6409
 Cp, KJ/(KG)(K)  146.9992 147.4878 147.9461 148.3735 148.7697 149.1341 149.4663 149.7659
 GAMMAs            1.1771   1.1776   1.1781   1.1786   1.1792   1.1797   1.1802   1.1807
 SON VEL,M/SEC     5282.5   5300.5   5318.6   5336.7   5354.8   5373.0   5391.3   5409.6

 TRANSPORT PROPERTIES (GASES ONLY)
   CONDUCTIVITY IN UNITS OF MILLIWATTS/(CM)(K)

 VISC,MILLIPOISE  0.66412  0.66470  0.66525  0.66576  0.66624  0.66667  0.66707  0.66744

  WITH EQUILIBRIUM REACTIONS

 Cp, KJ/(KG)(K)  146.9992 147.4878 147.9461 148.3735 148.7697 149.1341 149.4663 149.7659
 CONDUCTIVITY    171.4822 171.7922 172.0629 172.2941 172.4857 172.6373 172.7489 172.8204
 PRANDTL NUMBER    0.5693   0.5707   0.5720   0.5733   0.5746   0.5759   0.5772   0.5784

  WITH FROZEN REACTIONS

 Cp, KJ/(KG)(K)   19.9405  19.9522  19.9637  19.9752  19.9865  19.9978  20.0090  20.0201
 CONDUCTIVITY     18.4000  18.4175  18.4340  18.4497  18.4645  18.4785  18.4917  18.5040
 PRANDTL NUMBER    0.7197   0.7201   0.7205   0.7208   0.7212   0.7215   0.7218   0.7221

 MOLE FRACTIONS

 *H               0.56983  0.57547  0.58109  0.58668  0.59224  0.59778  0.60329  0.60877
 *H2              0.43017  0.42453  0.41891  0.41332  0.40776  0.40222  0.39671  0.39123

  * THERMODYNAMIC PROPERTIES FITTED TO 20000.K

 NOTE. WEIGHT FRACTION OF FUEL IN TOTAL FUELS AND OF OXIDANT IN TOTAL OXIDANTS









               THERMODYNAMIC EQUILIBRIUM PROPERTIES AT ASSIGNED

                           TEMPERATURE AND PRESSURE

 CASE =                

             REACTANT                    WT FRACTION      ENERGY      TEMP
                                          (SEE NOTE)     KJ/KG-MOL      K  
             H2                           1.0000000         0.000      0.000

 O/F=    0.00000  %FUEL=100.000000  R,EQ.RATIO= 0.000000  PHI,EQ.RATIO= 0.000000

 THERMODYNAMIC PROPERTIES

 P, BAR            4.9000   5.4000   5.4000   5.4000   5.4000   5.4000   5.4000   5.4000
 T, K             4190.00  4050.00  4060.00  4070.00  4080.00  4090.00  4100.00  4110.00
 RHO, KG/CU M    1.9646-2 2.3937-2 2.3786-2 2.3635-2 2.3486-2 2.3338-2 2.3190-2 2.3044-2
 H, KJ/KG        168528.8 144431.0 145832.6 147241.1 148656.4 150078.1 151506.0 152939.9
 U, KJ/KG        143587.5 121871.5 123129.7 124394.0 125664.0 126939.6 128220.5 129506.5
 G, KJ/KG       -370622.7-350754.8-351979.2-353207.1-354438.4-355673.2-356911.5-358153.3
 S, KJ/(KG)(K)   128.6758 122.2681 122.6137 122.9602 123.3075 123.6556 124.0043 124.3536

 M, (1/n)           1.397    1.493    1.487    1.481    1.475    1.470    1.464    1.458
 (dLV/dLP)t      -1.12339 -1.11383 -1.11460 -1.11534 -1.11606 -1.11676 -1.11743 -1.11808
 (dLV/dLT)p        2.6416   2.5657   2.5724   2.5789   2.5849   2.5906   2.5960   2.6009
 Cp, KJ/(KG)(K)  150.0325 139.8056 140.5121 141.1948 141.8530 142.4860 143.0933 143.6743
 GAMMAs            1.1813   1.1743   1.1747   1.1752   1.1756   1.1761   1.1765   1.1770
 SON VEL,M/SEC     5428.0   5147.0   5164.3   5181.6   5199.1   5216.6   5234.1   5251.7

 TRANSPORT PROPERTIES (GASES ONLY)
   CONDUCTIVITY IN UNITS OF MILLIWATTS/(CM)(K)

 VISC,MILLIPOISE  0.66777  0.66122  0.66214  0.66302  0.66386  0.66467  0.66544  0.66618

  WITH EQUILIBRIUM REACTIONS

 Cp, KJ/(KG)(K)  150.0325 139.8055 140.5121 141.1948 141.8530 142.4860 143.0933 143.6743
 CONDUCTIVITY    172.8517 166.0721 166.6972 167.2878 167.8435 168.3639 168.8485 169.2968
 PRANDTL NUMBER    0.5796   0.5566   0.5581   0.5596   0.5611   0.5625   0.5639   0.5654

  WITH FROZEN REACTIONS

 Cp, KJ/(KG)(K)   20.0311  19.8511  19.8632  19.8751  19.8870  19.8989  19.9106  19.9223
 CONDUCTIVITY     18.5155  18.3253  18.3509  18.3755  18.3993  18.4221  18.4440  18.4650
 PRANDTL NUMBER    0.7224   0.7163   0.7167   0.7171   0.7175   0.7180   0.7184   0.7188

 MOLE FRACTIONS

 *H               0.61421  0.51909  0.52481  0.53052  0.53621  0.54189  0.54755  0.55320
 *H2              0.38579  0.48091  0.47519  0.46948  0.46379  0.45811  0.45245  0.44680

  * THERMODYNAMIC PROPERTIES FITTED TO 20000.K

 NOTE. WEIGHT FRACTION OF FUEL IN TOTAL FUELS AND OF OXIDANT IN TOTAL OXIDANTS









               THERMODYNAMIC EQUILIBRIUM PROPERTIES AT ASSIGNED

                           TEMPERATURE AND PRESSURE

 CASE =                

             REACTANT                    WT FRACTION      ENERGY      TEMP
                                          (SEE NOTE)     KJ/KG-MOL      K  
             H2                           1.0000000         0.000      0.000

 O/F=    0.00000  %FUEL=100.000000  R,EQ.RATIO= 0.000000  PHI,EQ.RATIO= 0.000000

 THERMODYNAMIC PROPERTIES

 P, BAR            5.4000   5.4000   5.4000   5.4000   5.4000   5.4000   5.4000   5.4000
 T, K             4120.00  4130.00  4140.00  4150.00  4160.00  4170.00  4180.00  4190.00
 RHO, KG/CU M    2.2899-2 2.2754-2 2.2611-2 2.2469-2 2.2328-2 2.2188-2 2.2049-2 2.1911-2
 H, KJ/KG        154379.4 155824.4 157274.4 158729.3 160188.8 161652.5 163120.2 164591.5
 U, KJ/KG        130797.4 132092.7 133392.5 134696.2 136003.7 137314.7 138629.0 139946.2
 G, KJ/KG       -359398.6-360647.4-361899.7-363155.5-364414.8-365677.6-366943.9-368213.8
 S, KJ/(KG)(K)   124.7034 125.0537 125.4044 125.7554 126.1066 126.4581 126.8096 127.1612

 M, (1/n)           1.453    1.447    1.441    1.436    1.430    1.425    1.419    1.414
 (dLV/dLP)t      -1.11870 -1.11929 -1.11986 -1.12040 -1.12091 -1.12139 -1.12185 -1.12227
 (dLV/dLT)p        2.6055   2.6097   2.6135   2.6169   2.6200   2.6226   2.6248   2.6267
 Cp, KJ/(KG)(K)  144.2283 144.7548 145.2532 145.7230 146.1638 146.5750 146.9561 147.3068
 GAMMAs            1.1775   1.1779   1.1784   1.1789   1.1794   1.1799   1.1804   1.1810
 SON VEL,M/SEC     5269.4   5287.2   5305.0   5322.9   5340.8   5358.8   5376.8   5394.9

 TRANSPORT PROPERTIES (GASES ONLY)
   CONDUCTIVITY IN UNITS OF MILLIWATTS/(CM)(K)

 VISC,MILLIPOISE  0.66688  0.66754  0.66816  0.66875  0.66931  0.66982  0.67030  0.67075

  WITH EQUILIBRIUM REACTIONS

 Cp, KJ/(KG)(K)  144.2283 144.7548 145.2532 145.7230 146.1638 146.5750 146.9561 147.3068
 CONDUCTIVITY    169.7084 170.0831 170.4204 170.7201 170.9819 171.2056 171.3910 171.5379
 PRANDTL NUMBER    0.5668   0.5681   0.5695   0.5708   0.5722   0.5735   0.5747   0.5760

  WITH FROZEN REACTIONS

 Cp, KJ/(KG)(K)   19.9339  19.9454  19.9569  19.9683  19.9795  19.9907  20.0019  20.0129
 CONDUCTIVITY     18.4851  18.5043  18.5226  18.5400  18.5566  18.5724  18.5873  18.6013
 PRANDTL NUMBER    0.7191   0.7195   0.7199   0.7203   0.7206   0.7210   0.7213   0.7216

 MOLE FRACTIONS

 *H               0.55882  0.56443  0.57001  0.57558  0.58111  0.58663  0.59211  0.59757
 *H2              0.44118  0.43557  0.42999  0.42442  0.41889  0.41337  0.40789  0.40243

  * THERMODYNAMIC PROPERTIES FITTED TO 20000.K

 NOTE. WEIGHT FRACTION OF FUEL IN TOTAL FUELS AND OF OXIDANT IN TOTAL OXIDANTS









               THERMODYNAMIC EQUILIBRIUM PROPERTIES AT ASSIGNED

                           TEMPERATURE AND PRESSURE

 CASE =                

             REACTANT                    WT FRACTION      ENERGY      TEMP
                                          (SEE NOTE)     KJ/KG-MOL      K  
             H2                           1.0000000         0.000      0.000

 O/F=    0.00000  %FUEL=100.000000  R,EQ.RATIO= 0.000000  PHI,EQ.RATIO= 0.000000

 THERMODYNAMIC PROPERTIES

 P, BAR            6.0000   6.0000   6.0000   6.0000   6.0000   6.0000   6.0000   6.0000
 T, K             4050.00  4060.00  4070.00  4080.00  4090.00  4100.00  4110.00  4120.00
 RHO, KG/CU M    2.6914-2 2.6746-2 2.6579-2 2.6413-2 2.6249-2 2.6085-2 2.5922-2 2.5760-2
 H, KJ/KG        140771.9 142133.3 143502.0 144877.9 146260.8 147650.4 149046.5 150448.9
 U, KJ/KG        118478.4 119700.0 120928.0 122162.2 123402.5 124648.6 125900.3 127157.4
 G, KJ/KG       -348392.0-349601.5-350814.3-352030.6-353250.2-354473.2-355699.5-356929.3
 S, KJ/(KG)(K)   120.7812 121.1169 121.4536 121.7913 122.1298 122.4692 122.8093 123.1501

 M, (1/n)           1.510    1.505    1.499    1.493    1.488    1.482    1.476    1.471
 (dLV/dLP)t      -1.11132 -1.11215 -1.11295 -1.11373 -1.11449 -1.11523 -1.11594 -1.11663
 (dLV/dLT)p        2.5312   2.5388   2.5461   2.5531   2.5597   2.5660   2.5720   2.5776
 Cp, KJ/(KG)(K)  135.7610 136.5097 137.2375 137.9437 138.6278 139.2891 139.9270 140.5409
 GAMMAs            1.1743   1.1747   1.1751   1.1756   1.1760   1.1764   1.1769   1.1773
 SON VEL,M/SEC     5116.6   5133.5   5150.5   5167.6   5184.7   5201.9   5219.2   5236.6

 TRANSPORT PROPERTIES (GASES ONLY)
   CONDUCTIVITY IN UNITS OF MILLIWATTS/(CM)(K)

 VISC,MILLIPOISE  0.66241  0.66344  0.66443  0.66539  0.66631  0.66720  0.66805  0.66887

  WITH EQUILIBRIUM REACTIONS

 Cp, KJ/(KG)(K)  135.7609 136.5097 137.2375 137.9437 138.6278 139.2891 139.9270 140.5409
 CONDUCTIVITY    162.8625 163.5710 164.2479 164.8928 165.5052 166.0844 166.6302 167.1419
 PRANDTL NUMBER    0.5522   0.5537   0.5552   0.5566   0.5581   0.5596   0.5610   0.5624

  WITH FROZEN REACTIONS

 Cp, KJ/(KG)(K)   19.8322  19.8442  19.8561  19.8679  19.8797  19.8915  19.9031  19.9147
 CONDUCTIVITY     18.3702  18.3987  18.4262  18.4529  18.4786  18.5034  18.5273  18.5503
 PRANDTL NUMBER    0.7151   0.7156   0.7160   0.7164   0.7168   0.7173   0.7177   0.7181

 MOLE FRACTIONS

 *H               0.50142  0.50708  0.51274  0.51838  0.52402  0.52964  0.53525  0.54084
 *H2              0.49858  0.49292  0.48726  0.48162  0.47598  0.47036  0.46475  0.45916

  * THERMODYNAMIC PROPERTIES FITTED TO 20000.K

 NOTE. WEIGHT FRACTION OF FUEL IN TOTAL FUELS AND OF OXIDANT IN TOTAL OXIDANTS









               THERMODYNAMIC EQUILIBRIUM PROPERTIES AT ASSIGNED

                           TEMPERATURE AND PRESSURE

 CASE =                

             REACTANT                    WT FRACTION      ENERGY      TEMP
                                          (SEE NOTE)     KJ/KG-MOL      K  
             H2                           1.0000000         0.000      0.000

 O/F=    0.00000  %FUEL=100.000000  R,EQ.RATIO= 0.000000  PHI,EQ.RATIO= 0.000000

 THERMODYNAMIC PROPERTIES

 P, BAR            6.0000   6.0000   6.0000   6.0000   6.0000   6.0000   6.0000   6.7000
 T, K             4130.00  4140.00  4150.00  4160.00  4170.00  4180.00  4190.00  4050.00
 RHO, KG/CU M    2.5600-2 2.5440-2 2.5282-2 2.5124-2 2.4968-2 2.4813-2 2.4659-2 3.0420-2
 H, KJ/KG        151857.2 153271.4 154691.1 156116.0 157545.9 158980.5 160419.6 137074.4
 U, KJ/KG        128419.6 129686.8 130958.6 132234.9 133515.3 134799.7 136087.8 115049.8
 G, KJ/KG       -358162.6-359399.2-360639.2-361882.7-363129.6-364379.9-365633.7-345946.9
 S, KJ/(KG)(K)   123.4915 123.8335 124.1760 124.5189 124.8622 125.2058 125.5497 119.2645

 M, (1/n)           1.465    1.460    1.454    1.448    1.443    1.437    1.432    1.529
 (dLV/dLP)t      -1.11730 -1.11794 -1.11856 -1.11915 -1.11972 -1.12025 -1.12076 -1.10853
 (dLV/dLT)p        2.5828   2.5877   2.5922   2.5964   2.6002   2.6036   2.6066   2.4928
 Cp, KJ/(KG)(K)  141.1303 141.6945 142.2331 142.7455 143.2311 143.6895 144.1203 131.4722
 GAMMAs            1.1778   1.1782   1.1787   1.1792   1.1797   1.1802   1.1807   1.1744
 SON VEL,M/SEC     5254.0   5271.5   5289.0   5306.6   5324.3   5342.0   5359.8   5085.8

 TRANSPORT PROPERTIES (GASES ONLY)
   CONDUCTIVITY IN UNITS OF MILLIWATTS/(CM)(K)

 VISC,MILLIPOISE  0.66965  0.67040  0.67111  0.67179  0.67243  0.67303  0.67360  0.66330

  WITH EQUILIBRIUM REACTIONS

 Cp, KJ/(KG)(K)  141.1303 141.6945 142.2331 142.7455 143.2311 143.6895 144.1203 131.4721
 CONDUCTIVITY    167.6192 168.0617 168.4690 168.8408 169.1767 169.4764 169.7398 159.2778
 PRANDTL NUMBER    0.5638   0.5652   0.5666   0.5680   0.5693   0.5706   0.5719   0.5475

  WITH FROZEN REACTIONS

 Cp, KJ/(KG)(K)   19.9262  19.9376  19.9490  19.9603  19.9715  19.9826  19.9936  19.8131
 CONDUCTIVITY     18.5724  18.5936  18.6139  18.6334  18.6520  18.6697  18.6866  18.4085
 PRANDTL NUMBER    0.7185   0.7189   0.7192   0.7196   0.7200   0.7204   0.7207   0.7139

 MOLE FRACTIONS

 *H               0.54642  0.55198  0.55753  0.56305  0.56856  0.57404  0.57950  0.48313
 *H2              0.45358  0.44802  0.44247  0.43695  0.43144  0.42596  0.42050  0.51687

  * THERMODYNAMIC PROPERTIES FITTED TO 20000.K

 NOTE. WEIGHT FRACTION OF FUEL IN TOTAL FUELS AND OF OXIDANT IN TOTAL OXIDANTS









               THERMODYNAMIC EQUILIBRIUM PROPERTIES AT ASSIGNED

                           TEMPERATURE AND PRESSURE

 CASE =                

             REACTANT                    WT FRACTION      ENERGY      TEMP
                                          (SEE NOTE)     KJ/KG-MOL      K  
             H2                           1.0000000         0.000      0.000

 O/F=    0.00000  %FUEL=100.000000  R,EQ.RATIO= 0.000000  PHI,EQ.RATIO= 0.000000

 THERMODYNAMIC PROPERTIES

 P, BAR            6.7000   6.7000   6.7000   6.7000   6.7000   6.7000   6.7000   6.7000
 T, K             4060.00  4070.00  4080.00  4090.00  4100.00  4110.00  4120.00  4130.00
 RHO, KG/CU M    3.0234-2 3.0048-2 2.9863-2 2.9680-2 2.9497-2 2.9315-2 2.9135-2 2.8955-2
 H, KJ/KG        138393.1 139719.4 141053.4 142394.7 143743.1 145098.5 146460.7 147829.5
 U, KJ/KG        116232.4 117421.8 118617.8 119820.2 121028.8 122243.5 123464.1 124690.3
 G, KJ/KG       -347141.1-348338.7-349539.5-350743.5-351950.9-353161.6-354375.5-355592.8
 S, KJ/(KG)(K)   119.5897 119.9160 120.2433 120.5717 120.9010 121.2312 121.5622 121.8940

 M, (1/n)           1.523    1.518    1.512    1.506    1.501    1.495    1.490    1.484
 (dLV/dLP)t      -1.10940 -1.11026 -1.11109 -1.11191 -1.11271 -1.11348 -1.11424 -1.11497
 (dLV/dLT)p        2.5012   2.5092   2.5170   2.5245   2.5317   2.5386   2.5452   2.5514
 Cp, KJ/(KG)(K)  132.2545 133.0188 133.7645 134.4909 135.1975 135.8837 136.5488 137.1923
 GAMMAs            1.1748   1.1752   1.1756   1.1760   1.1764   1.1768   1.1772   1.1777
 SON VEL,M/SEC     5102.4   5119.0   5135.6   5152.4   5169.2   5186.1   5203.1   5220.2

 TRANSPORT PROPERTIES (GASES ONLY)
   CONDUCTIVITY IN UNITS OF MILLIWATTS/(CM)(K)

 VISC,MILLIPOISE  0.66444  0.66554  0.66662  0.66766  0.66866  0.66963  0.67057  0.67147

  WITH EQUILIBRIUM REACTIONS

 Cp, KJ/(KG)(K)  132.2545 133.0188 133.7645 134.4909 135.1975 135.8837 136.5488 137.1923
 CONDUCTIVITY    160.0620 160.8178 161.5445 162.2416 162.9086 163.5449 164.1500 164.7235
 PRANDTL NUMBER    0.5490   0.5505   0.5520   0.5535   0.5549   0.5564   0.5578   0.5592

  WITH FROZEN REACTIONS

 Cp, KJ/(KG)(K)   19.8250  19.8368  19.8486  19.8604  19.8720  19.8836  19.8952  19.9066
 CONDUCTIVITY     18.4399  18.4704  18.5001  18.5288  18.5566  18.5835  18.6095  18.6346
 PRANDTL NUMBER    0.7143   0.7148   0.7152   0.7156   0.7161   0.7165   0.7169   0.7173

 MOLE FRACTIONS

 *H               0.48872  0.49431  0.49989  0.50546  0.51103  0.51659  0.52213  0.52767
 *H2              0.51128  0.50569  0.50011  0.49454  0.48897  0.48341  0.47787  0.47233

  * THERMODYNAMIC PROPERTIES FITTED TO 20000.K

 NOTE. WEIGHT FRACTION OF FUEL IN TOTAL FUELS AND OF OXIDANT IN TOTAL OXIDANTS









               THERMODYNAMIC EQUILIBRIUM PROPERTIES AT ASSIGNED

                           TEMPERATURE AND PRESSURE

 CASE =                

             REACTANT                    WT FRACTION      ENERGY      TEMP
                                          (SEE NOTE)     KJ/KG-MOL      K  
             H2                           1.0000000         0.000      0.000

 O/F=    0.00000  %FUEL=100.000000  R,EQ.RATIO= 0.000000  PHI,EQ.RATIO= 0.000000

 THERMODYNAMIC PROPERTIES

 P, BAR            6.7000   6.7000   6.7000   6.7000   6.7000   6.7000   7.4000   7.4000
 T, K             4140.00  4150.00  4160.00  4170.00  4180.00  4190.00  4050.00  4060.00
 RHO, KG/CU M    2.8777-2 2.8600-2 2.8424-2 2.8249-2 2.8075-2 2.7903-2 3.3959-2 3.3753-2
 H, KJ/KG        149204.5 150585.7 151972.7 153365.3 154763.4 156166.6 133863.8 135143.7
 U, KJ/KG        125922.0 127158.9 128400.8 129647.5 130898.8 132154.5 112072.6 113219.9
 G, KJ/KG       -356813.4-358037.3-359264.6-360495.2-361729.2-362966.5-343769.9-344950.8
 S, KJ/(KG)(K)   122.2266 122.5598 122.8936 123.2279 123.5628 123.8981 117.9342 118.2499

 M, (1/n)           1.478    1.473    1.467    1.462    1.456    1.451    1.545    1.540
 (dLV/dLP)t      -1.11568 -1.11637 -1.11704 -1.11768 -1.11830 -1.11889 -1.10590 -1.10681
 (dLV/dLT)p        2.5573   2.5629   2.5681   2.5730   2.5775   2.5817   2.4565   2.4655
 Cp, KJ/(KG)(K)  137.8137 138.4124 138.9877 139.5393 140.0666 140.5691 127.5911 128.3954
 GAMMAs            1.1781   1.1786   1.1790   1.1795   1.1799   1.1804   1.1745   1.1749
 SON VEL,M/SEC     5237.3   5254.5   5271.8   5289.1   5306.5   5323.9   5059.1   5075.2

 TRANSPORT PROPERTIES (GASES ONLY)
   CONDUCTIVITY IN UNITS OF MILLIWATTS/(CM)(K)

 VISC,MILLIPOISE  0.67234  0.67318  0.67398  0.67474  0.67547  0.67617  0.66381  0.66504

  WITH EQUILIBRIUM REACTIONS

 Cp, KJ/(KG)(K)  137.8137 138.4124 138.9877 139.5393 140.0666 140.5691 127.5911 128.3954
 CONDUCTIVITY    165.2649 165.7738 166.2498 166.6924 167.1014 167.4763 155.8860 156.7288
 PRANDTL NUMBER    0.5607   0.5621   0.5635   0.5648   0.5662   0.5675   0.5433   0.5448

  WITH FROZEN REACTIONS

 Cp, KJ/(KG)(K)   19.9180  19.9294  19.9406  19.9518  19.9629  19.9740  19.7965  19.8083
 CONDUCTIVITY     18.6589  18.6822  18.7047  18.7263  18.7470  18.7669  18.4354  18.4694
 PRANDTL NUMBER    0.7177   0.7181   0.7185   0.7189   0.7193   0.7197   0.7128   0.7133

 MOLE FRACTIONS

 *H               0.53319  0.53870  0.54420  0.54968  0.55514  0.56058  0.46688  0.47240
 *H2              0.46681  0.46130  0.45580  0.45032  0.44486  0.43941  0.53312  0.52760

  * THERMODYNAMIC PROPERTIES FITTED TO 20000.K

 NOTE. WEIGHT FRACTION OF FUEL IN TOTAL FUELS AND OF OXIDANT IN TOTAL OXIDANTS









               THERMODYNAMIC EQUILIBRIUM PROPERTIES AT ASSIGNED

                           TEMPERATURE AND PRESSURE

 CASE =                

             REACTANT                    WT FRACTION      ENERGY      TEMP
                                          (SEE NOTE)     KJ/KG-MOL      K  
             H2                           1.0000000         0.000      0.000

 O/F=    0.00000  %FUEL=100.000000  R,EQ.RATIO= 0.000000  PHI,EQ.RATIO= 0.000000

 THERMODYNAMIC PROPERTIES

 P, BAR            7.4000   7.4000   7.4000   7.4000   7.4000   7.4000   7.4000   7.4000
 T, K             4070.00  4080.00  4090.00  4100.00  4110.00  4120.00  4130.00  4140.00
 RHO, KG/CU M    3.3549-2 3.3345-2 3.3143-2 3.2942-2 3.2741-2 3.2542-2 3.2344-2 3.2147-2
 H, KJ/KG        136431.6 137727.4 139030.7 140341.5 141659.7 142984.9 144317.1 145655.9
 U, KJ/KG        114374.2 115535.3 116703.2 117877.5 119058.3 120245.3 121438.2 122637.0
 G, KJ/KG       -346134.9-347322.2-348512.6-349706.2-350903.1-352103.1-353306.4-354512.9
 S, KJ/(KG)(K)   118.5667 118.8847 119.2037 119.5238 119.8449 120.1670 120.4899 120.8137

 M, (1/n)           1.534    1.529    1.523    1.518    1.512    1.506    1.501    1.495
 (dLV/dLP)t      -1.10770 -1.10858 -1.10944 -1.11028 -1.11110 -1.11191 -1.11269 -1.11346
 (dLV/dLT)p        2.4742   2.4827   2.4908   2.4987   2.5063   2.5136   2.5206   2.5273
 Cp, KJ/(KG)(K)  129.1841 129.9565 130.7122 131.4505 132.1708 132.8727 133.5555 134.2186
 GAMMAs            1.1753   1.1756   1.1760   1.1764   1.1768   1.1772   1.1776   1.1781
 SON VEL,M/SEC     5091.5   5107.8   5124.2   5140.7   5157.3   5173.9   5190.7   5207.5

 TRANSPORT PROPERTIES (GASES ONLY)
   CONDUCTIVITY IN UNITS OF MILLIWATTS/(CM)(K)

 VISC,MILLIPOISE  0.66624  0.66741  0.66855  0.66966  0.67073  0.67177  0.67278  0.67375

  WITH EQUILIBRIUM REACTIONS

 Cp, KJ/(KG)(K)  129.1841 129.9565 130.7122 131.4505 132.1708 132.8727 133.5555 134.2186
 CONDUCTIVITY    157.5458 158.3364 159.1000 159.8360 160.5440 161.2234 161.8737 162.4943
 PRANDTL NUMBER    0.5463   0.5478   0.5493   0.5507   0.5522   0.5536   0.5551   0.5565

  WITH FROZEN REACTIONS

 Cp, KJ/(KG)(K)   19.8201  19.8318  19.8435  19.8551  19.8667  19.8782  19.8896  19.9010
 CONDUCTIVITY     18.5025  18.5348  18.5661  18.5966  18.6262  18.6549  18.6827  18.7096
 PRANDTL NUMBER    0.7137   0.7141   0.7145   0.7150   0.7154   0.7158   0.7162   0.7167

 MOLE FRACTIONS

 *H               0.47791  0.48342  0.48893  0.49444  0.49994  0.50543  0.51092  0.51640
 *H2              0.52209  0.51658  0.51107  0.50556  0.50006  0.49457  0.48908  0.48360

  * THERMODYNAMIC PROPERTIES FITTED TO 20000.K

 NOTE. WEIGHT FRACTION OF FUEL IN TOTAL FUELS AND OF OXIDANT IN TOTAL OXIDANTS









               THERMODYNAMIC EQUILIBRIUM PROPERTIES AT ASSIGNED

                           TEMPERATURE AND PRESSURE

 CASE =                

             REACTANT                    WT FRACTION      ENERGY      TEMP
                                          (SEE NOTE)     KJ/KG-MOL      K  
             H2                           1.0000000         0.000      0.000

 O/F=    0.00000  %FUEL=100.000000  R,EQ.RATIO= 0.000000  PHI,EQ.RATIO= 0.000000

 THERMODYNAMIC PROPERTIES

 P, BAR            7.4000   7.4000   7.4000   7.4000   7.4000   8.2500   8.2500   8.2500
 T, K             4150.00  4160.00  4170.00  4180.00  4190.00  4050.00  4060.00  4070.00
 RHO, KG/CU M    3.1952-2 3.1757-2 3.1564-2 3.1372-2 3.1181-2 3.8292-2 3.8064-2 3.7837-2
 H, KJ/KG        147001.4 148353.1 149711.0 151074.7 152444.2 130480.2 131717.9 132963.6
 U, KJ/KG        123841.5 125051.4 126266.6 127486.8 128711.9 108935.0 110043.7 111159.5
 G, KJ/KG       -355722.7-356935.7-358152.0-359371.5-360594.3-341413.9-342580.6-343750.4
 S, KJ/(KG)(K)   121.1383 121.4637 121.7897 122.1163 122.4436 116.5171 116.8223 117.1287

 M, (1/n)           1.490    1.484    1.479    1.473    1.468    1.563    1.557    1.552
 (dLV/dLP)t      -1.11420 -1.11493 -1.11563 -1.11631 -1.11697 -1.10291 -1.10385 -1.10478
 (dLV/dLT)p        2.5337   2.5398   2.5456   2.5510   2.5562   2.4155   2.4250   2.4342
 Cp, KJ/(KG)(K)  134.8616 135.4838 136.0848 136.6641 137.2210 123.3506 124.1708 124.9778
 GAMMAs            1.1785   1.1789   1.1794   1.1798   1.1803   1.1747   1.1750   1.1754
 SON VEL,M/SEC     5224.3   5241.3   5258.3   5275.3   5292.5   5030.8   5046.6   5062.5

 TRANSPORT PROPERTIES (GASES ONLY)
   CONDUCTIVITY IN UNITS OF MILLIWATTS/(CM)(K)

 VISC,MILLIPOISE  0.67469  0.67560  0.67648  0.67732  0.67813  0.66407  0.66540  0.66669

  WITH EQUILIBRIUM REACTIONS

 Cp, KJ/(KG)(K)  134.8616 135.4838 136.0848 136.6641 137.2210 123.3505 124.1708 124.9778
 CONDUCTIVITY    163.0849 163.6450 164.1742 164.6719 165.1380 152.0304 152.9273 153.8011
 PRANDTL NUMBER    0.5579   0.5593   0.5607   0.5621   0.5635   0.5388   0.5403   0.5418

  WITH FROZEN REACTIONS

 Cp, KJ/(KG)(K)   19.9122  19.9235  19.9346  19.9457  19.9568  19.7790  19.7907  19.8024
 CONDUCTIVITY     18.7357  18.7609  18.7852  18.8086  18.8312  18.4568  18.4936  18.5295
 PRANDTL NUMBER    0.7171   0.7175   0.7179   0.7183   0.7187   0.7116   0.7121   0.7125

 MOLE FRACTIONS

 *H               0.52187  0.52732  0.53277  0.53820  0.54361  0.44938  0.45480  0.46022
 *H2              0.47813  0.47268  0.46723  0.46180  0.45639  0.55062  0.54520  0.53978

  * THERMODYNAMIC PROPERTIES FITTED TO 20000.K

 NOTE. WEIGHT FRACTION OF FUEL IN TOTAL FUELS AND OF OXIDANT IN TOTAL OXIDANTS









               THERMODYNAMIC EQUILIBRIUM PROPERTIES AT ASSIGNED

                           TEMPERATURE AND PRESSURE

 CASE =                

             REACTANT                    WT FRACTION      ENERGY      TEMP
                                          (SEE NOTE)     KJ/KG-MOL      K  
             H2                           1.0000000         0.000      0.000

 O/F=    0.00000  %FUEL=100.000000  R,EQ.RATIO= 0.000000  PHI,EQ.RATIO= 0.000000

 THERMODYNAMIC PROPERTIES

 P, BAR            8.2500   8.2500   8.2500   8.2500   8.2500   8.2500   8.2500   8.2500
 T, K             4080.00  4090.00  4100.00  4110.00  4120.00  4130.00  4140.00  4150.00
 RHO, KG/CU M    3.7611-2 3.7386-2 3.7163-2 3.6940-2 3.6719-2 3.6499-2 3.6280-2 3.6062-2
 H, KJ/KG        134217.4 135479.0 136748.3 138025.2 139309.5 140601.1 141899.7 143205.2
 U, KJ/KG        112282.4 113412.2 114548.7 115691.9 116841.6 117997.6 119159.8 120328.0
 G, KJ/KG       -344923.2-346099.1-347278.1-348460.2-349645.5-350833.8-352025.3-353219.9
 S, KJ/(KG)(K)   117.4364 117.7453 118.0552 118.3663 118.6784 118.9915 119.3055 119.6205

 M, (1/n)           1.547    1.541    1.536    1.530    1.525    1.519    1.514    1.508
 (dLV/dLP)t      -1.10569 -1.10659 -1.10747 -1.10834 -1.10919 -1.11003 -1.11084 -1.11164
 (dLV/dLT)p        2.4433   2.4520   2.4606   2.4689   2.4769   2.4846   2.4921   2.4993
 Cp, KJ/(KG)(K)  125.7710 126.5499 127.3139 128.0626 128.7953 129.5115 130.2107 130.8923
 GAMMAs            1.1758   1.1761   1.1765   1.1769   1.1773   1.1777   1.1781   1.1785
 SON VEL,M/SEC     5078.4   5094.4   5110.5   5126.7   5143.0   5159.4   5175.8   5192.3

 TRANSPORT PROPERTIES (GASES ONLY)
   CONDUCTIVITY IN UNITS OF MILLIWATTS/(CM)(K)

 VISC,MILLIPOISE  0.66796  0.66920  0.67041  0.67159  0.67274  0.67386  0.67494  0.67599

  WITH EQUILIBRIUM REACTIONS

 Cp, KJ/(KG)(K)  125.7710 126.5499 127.3139 128.0626 128.7953 129.5115 130.2107 130.8923
 CONDUCTIVITY    154.6514 155.4774 156.2787 157.0547 157.8049 158.5287 159.2257 159.8952
 PRANDTL NUMBER    0.5432   0.5447   0.5462   0.5476   0.5491   0.5505   0.5519   0.5534

  WITH FROZEN REACTIONS

 Cp, KJ/(KG)(K)   19.8141  19.8257  19.8372  19.8487  19.8602  19.8715  19.8829  19.8941
 CONDUCTIVITY     18.5645  18.5987  18.6320  18.6644  18.6960  18.7267  18.7565  18.7855
 PRANDTL NUMBER    0.7129   0.7134   0.7138   0.7142   0.7146   0.7151   0.7155   0.7159

 MOLE FRACTIONS

 *H               0.46565  0.47108  0.47651  0.48193  0.48736  0.49278  0.49819  0.50360
 *H2              0.53435  0.52892  0.52349  0.51807  0.51264  0.50722  0.50181  0.49640

  * THERMODYNAMIC PROPERTIES FITTED TO 20000.K

 NOTE. WEIGHT FRACTION OF FUEL IN TOTAL FUELS AND OF OXIDANT IN TOTAL OXIDANTS









               THERMODYNAMIC EQUILIBRIUM PROPERTIES AT ASSIGNED

                           TEMPERATURE AND PRESSURE

 CASE =                

             REACTANT                    WT FRACTION      ENERGY      TEMP
                                          (SEE NOTE)     KJ/KG-MOL      K  
             H2                           1.0000000         0.000      0.000

 O/F=    0.00000  %FUEL=100.000000  R,EQ.RATIO= 0.000000  PHI,EQ.RATIO= 0.000000

 THERMODYNAMIC PROPERTIES

 P, BAR            8.2500   8.2500   8.2500   8.2500   9.1000   9.1000   9.1000   9.1000
 T, K             4160.00  4170.00  4180.00  4190.00  4050.00  4060.00  4070.00  4080.00
 RHO, KG/CU M    3.5846-2 3.5630-2 3.5416-2 3.5203-2 4.2659-2 4.2409-2 4.2161-2 4.1913-2
 H, KJ/KG        144517.5 145836.3 147161.4 148492.7 127544.4 128744.1 129952.0 131168.0
 U, KJ/KG        121502.1 122681.8 123867.0 125057.5 106212.7 107286.6 108367.9 109456.3
 G, KJ/KG       -354417.7-355618.6-356822.8-358030.1-339311.7-340465.9-341623.1-342783.3
 S, KJ/(KG)(K)   119.9363 120.2530 120.5704 120.8885 115.2731 115.5690 115.8661 116.1645

 M, (1/n)           1.503    1.497    1.492    1.487    1.579    1.573    1.568    1.562
 (dLV/dLP)t      -1.11242 -1.11318 -1.11392 -1.11464 -1.10014 -1.10110 -1.10206 -1.10299
 (dLV/dLT)p        2.5062   2.5129   2.5192   2.5252   2.3774   2.3873   2.3970   2.4064
 Cp, KJ/(KG)(K)  131.5558 132.2007 132.8265 133.4327 119.5516 120.3798 121.1967 122.0018
 GAMMAs            1.1789   1.1793   1.1797   1.1802   1.1749   1.1752   1.1756   1.1759
 SON VEL,M/SEC     5208.9   5225.5   5242.2   5259.0   5006.3   5021.7   5037.2   5052.8

 TRANSPORT PROPERTIES (GASES ONLY)
   CONDUCTIVITY IN UNITS OF MILLIWATTS/(CM)(K)

 VISC,MILLIPOISE  0.67702  0.67800  0.67896  0.67989  0.66405  0.66546  0.66684  0.66819

  WITH EQUILIBRIUM REACTIONS

 Cp, KJ/(KG)(K)  131.5558 132.2007 132.8265 133.4327 119.5515 120.3798 121.1967 122.0018
 CONDUCTIVITY    160.5369 161.1503 161.7349 162.2904 148.4508 149.3879 150.3045 151.1999
 PRANDTL NUMBER    0.5548   0.5562   0.5576   0.5590   0.5348   0.5362   0.5377   0.5392

  WITH FROZEN REACTIONS

 Cp, KJ/(KG)(K)   19.9053  19.9164  19.9275  19.9385  19.7638  19.7755  19.7871  19.7987
 CONDUCTIVITY     18.8136  18.8408  18.8672  18.8927  18.4693  18.5084  18.5467  18.5842
 PRANDTL NUMBER    0.7163   0.7167   0.7171   0.7175   0.7106   0.7110   0.7114   0.7119

 MOLE FRACTIONS

 *H               0.50900  0.51440  0.51978  0.52516  0.43386  0.43919  0.44453  0.44987
 *H2              0.49100  0.48560  0.48022  0.47484  0.56614  0.56081  0.55547  0.55013

  * THERMODYNAMIC PROPERTIES FITTED TO 20000.K

 NOTE. WEIGHT FRACTION OF FUEL IN TOTAL FUELS AND OF OXIDANT IN TOTAL OXIDANTS









               THERMODYNAMIC EQUILIBRIUM PROPERTIES AT ASSIGNED

                           TEMPERATURE AND PRESSURE

 CASE =                

             REACTANT                    WT FRACTION      ENERGY      TEMP
                                          (SEE NOTE)     KJ/KG-MOL      K  
             H2                           1.0000000         0.000      0.000

 O/F=    0.00000  %FUEL=100.000000  R,EQ.RATIO= 0.000000  PHI,EQ.RATIO= 0.000000

 THERMODYNAMIC PROPERTIES

 P, BAR            9.1000   9.1000   9.1000   9.1000   9.1000   9.1000   9.1000   9.1000
 T, K             4090.00  4100.00  4110.00  4120.00  4130.00  4140.00  4150.00  4160.00
 RHO, KG/CU M    4.1666-2 4.1421-2 4.1176-2 4.0933-2 4.0691-2 4.0450-2 4.0211-2 3.9972-2
 H, KJ/KG        132392.0 133623.8 134863.4 136110.6 137365.3 138627.2 139896.4 141172.5
 U, KJ/KG        110551.8 111654.2 112763.4 113879.2 115001.6 116130.5 117265.5 118406.7
 G, KJ/KG       -343946.4-345112.5-346281.7-347453.9-348629.1-349807.4-350988.7-352173.1
 S, KJ/(KG)(K)   116.4642 116.7650 117.0669 117.3700 117.6742 117.9794 118.2856 118.5927

 M, (1/n)           1.557    1.552    1.546    1.541    1.535    1.530    1.525    1.519
 (dLV/dLP)t      -1.10392 -1.10483 -1.10573 -1.10662 -1.10749 -1.10835 -1.10918 -1.11001
 (dLV/dLT)p        2.4157   2.4247   2.4335   2.4421   2.4504   2.4585   2.4663   2.4739
 Cp, KJ/(KG)(K)  122.7946 123.5747 124.3414 125.0943 125.8329 126.5566 127.2650 127.9575
 GAMMAs            1.1763   1.1766   1.1770   1.1773   1.1777   1.1781   1.1785   1.1789
 SON VEL,M/SEC     5068.5   5084.3   5100.1   5116.1   5132.1   5148.2   5164.3   5180.6

 TRANSPORT PROPERTIES (GASES ONLY)
   CONDUCTIVITY IN UNITS OF MILLIWATTS/(CM)(K)

 VISC,MILLIPOISE  0.66952  0.67081  0.67208  0.67332  0.67453  0.67571  0.67686  0.67797

  WITH EQUILIBRIUM REACTIONS

 Cp, KJ/(KG)(K)  122.7946 123.5747 124.3414 125.0943 125.8329 126.5566 127.2650 127.9575
 CONDUCTIVITY    152.0735 152.9248 153.7532 154.5583 155.3393 156.0960 156.8276 157.5337
 PRANDTL NUMBER    0.5406   0.5421   0.5435   0.5450   0.5464   0.5478   0.5493   0.5507

  WITH FROZEN REACTIONS

 Cp, KJ/(KG)(K)   19.8102  19.8217  19.8331  19.8445  19.8558  19.8671  19.8783  19.8895
 CONDUCTIVITY     18.6208  18.6565  18.6915  18.7256  18.7588  18.7912  18.8227  18.8534
 PRANDTL NUMBER    0.7123   0.7127   0.7131   0.7136   0.7140   0.7144   0.7148   0.7152

 MOLE FRACTIONS

 *H               0.45521  0.46056  0.46591  0.47126  0.47661  0.48196  0.48731  0.49265
 *H2              0.54479  0.53944  0.53409  0.52874  0.52339  0.51804  0.51269  0.50735

  * THERMODYNAMIC PROPERTIES FITTED TO 20000.K

 NOTE. WEIGHT FRACTION OF FUEL IN TOTAL FUELS AND OF OXIDANT IN TOTAL OXIDANTS









               THERMODYNAMIC EQUILIBRIUM PROPERTIES AT ASSIGNED

                           TEMPERATURE AND PRESSURE

 CASE =                

             REACTANT                    WT FRACTION      ENERGY      TEMP
                                          (SEE NOTE)     KJ/KG-MOL      K  
             H2                           1.0000000         0.000      0.000

 O/F=    0.00000  %FUEL=100.000000  R,EQ.RATIO= 0.000000  PHI,EQ.RATIO= 0.000000

 THERMODYNAMIC PROPERTIES

 P, BAR            9.1000   9.1000   9.1000   10.000   10.000   10.000   10.000   10.000
 T, K             4170.00  4180.00  4190.00  4050.00  4060.00  4070.00  4080.00  4090.00
 RHO, KG/CU M    3.9735-2 3.9499-2 3.9265-2 4.7317-2 4.7044-2 4.6773-2 4.6502-2 4.6232-2
 H, KJ/KG        142455.4 143745.1 145041.2 124823.5 125987.0 127158.8 128338.7 129526.7
 U, KJ/KG        119553.9 120706.8 121865.4 103689.5 104730.5 105778.7 106834.2 107896.8
 G, KJ/KG       -353360.6-354551.1-355744.7-337309.3-338451.8-339597.2-340745.4-341896.6
 S, KJ/(KG)(K)   118.9007 119.2096 119.5193 114.1069 114.3938 114.6820 114.9716 115.2624

 M, (1/n)           1.514    1.509    1.503    1.593    1.588    1.583    1.577    1.572
 (dLV/dLP)t      -1.11081 -1.11160 -1.11237 -1.09743 -1.09841 -1.09938 -1.10034 -1.10128
 (dLV/dLT)p        2.4812   2.4882   2.4950   2.3401   2.3503   2.3603   2.3701   2.3798
 Cp, KJ/(KG)(K)  128.6336 129.2929 129.9348 115.9361 116.7668 117.5879 118.3991 119.1997
 GAMMAs            1.1793   1.1797   1.1801   1.1752   1.1755   1.1758   1.1761   1.1764
 SON VEL,M/SEC     5196.9   5213.3   5229.7   4983.5   4998.6   5013.8   5029.1   5044.4

 TRANSPORT PROPERTIES (GASES ONLY)
   CONDUCTIVITY IN UNITS OF MILLIWATTS/(CM)(K)

 VISC,MILLIPOISE  0.67906  0.68012  0.68114  0.66383  0.66530  0.66676  0.66819  0.66959

  WITH EQUILIBRIUM REACTIONS

 Cp, KJ/(KG)(K)  128.6336 129.2929 129.9348 115.9360 116.7668 117.5879 118.3991 119.1997
 CONDUCTIVITY    158.2139 158.8677 159.4946 144.9384 145.9072 146.8577 147.7892 148.7011
 PRANDTL NUMBER    0.5521   0.5535   0.5549   0.5310   0.5324   0.5339   0.5353   0.5367

  WITH FROZEN REACTIONS

 Cp, KJ/(KG)(K)   19.9006  19.9116  19.9226  19.7498  19.7613  19.7729  19.7844  19.7959
 CONDUCTIVITY     18.8832  18.9122  18.9404  18.4754  18.5167  18.5571  18.5968  18.6357
 PRANDTL NUMBER    0.7156   0.7161   0.7165   0.7096   0.7100   0.7104   0.7109   0.7113

 MOLE FRACTIONS

 *H               0.49799  0.50332  0.50865  0.41920  0.42444  0.42968  0.43493  0.44019
 *H2              0.50201  0.49668  0.49135  0.58080  0.57556  0.57032  0.56507  0.55981

  * THERMODYNAMIC PROPERTIES FITTED TO 20000.K

 NOTE. WEIGHT FRACTION OF FUEL IN TOTAL FUELS AND OF OXIDANT IN TOTAL OXIDANTS









               THERMODYNAMIC EQUILIBRIUM PROPERTIES AT ASSIGNED

                           TEMPERATURE AND PRESSURE

 CASE =                

             REACTANT                    WT FRACTION      ENERGY      TEMP
                                          (SEE NOTE)     KJ/KG-MOL      K  
             H2                           1.0000000         0.000      0.000

 O/F=    0.00000  %FUEL=100.000000  R,EQ.RATIO= 0.000000  PHI,EQ.RATIO= 0.000000

 THERMODYNAMIC PROPERTIES

 P, BAR            10.000   10.000   10.000   10.000   10.000   10.000   10.000   10.000
 T, K             4100.00  4110.00  4120.00  4130.00  4140.00  4150.00  4160.00  4170.00
 RHO, KG/CU M    4.5964-2 4.5697-2 4.5431-2 4.5166-2 4.4902-2 4.4640-2 4.4379-2 4.4119-2
 H, KJ/KG        130722.7 131926.5 133138.0 134357.1 135583.7 136817.6 138058.8 139307.0
 U, KJ/KG        108966.5 110043.0 111126.4 112216.4 113313.0 114416.1 115525.4 116640.9
 G, KJ/KG       -343050.7-344207.7-345367.6-346530.5-347696.4-348865.2-350037.0-351211.9
 S, KJ/(KG)(K)   115.5545 115.8477 116.1421 116.4377 116.7343 117.0320 117.3307 117.6304

 M, (1/n)           1.567    1.562    1.556    1.551    1.546    1.540    1.535    1.530
 (dLV/dLP)t      -1.10222 -1.10314 -1.10406 -1.10496 -1.10584 -1.10671 -1.10757 -1.10841
 (dLV/dLT)p        2.3892   2.3984   2.4074   2.4162   2.4248   2.4331   2.4412   2.4491
 Cp, KJ/(KG)(K)  119.9894 120.7676 121.5339 122.2877 123.0286 123.7561 124.4698 125.1690
 GAMMAs            1.1768   1.1771   1.1775   1.1778   1.1782   1.1786   1.1789   1.1793
 SON VEL,M/SEC     5059.9   5075.4   5091.0   5106.7   5122.4   5138.3   5154.2   5170.2

 TRANSPORT PROPERTIES (GASES ONLY)
   CONDUCTIVITY IN UNITS OF MILLIWATTS/(CM)(K)

 VISC,MILLIPOISE  0.67096  0.67231  0.67363  0.67492  0.67619  0.67742  0.67863  0.67981

  WITH EQUILIBRIUM REACTIONS

 Cp, KJ/(KG)(K)  119.9894 120.7676 121.5339 122.2877 123.0286 123.7561 124.4698 125.1690
 CONDUCTIVITY    149.5930 150.4643 151.3144 152.1428 152.9490 153.7325 154.4927 155.2292
 PRANDTL NUMBER    0.5382   0.5396   0.5411   0.5425   0.5439   0.5453   0.5467   0.5482

  WITH FROZEN REACTIONS

 Cp, KJ/(KG)(K)   19.8073  19.8187  19.8300  19.8412  19.8525  19.8636  19.8747  19.8858
 CONDUCTIVITY     18.6738  18.7110  18.7474  18.7830  18.8178  18.8518  18.8849  18.9171
 PRANDTL NUMBER    0.7117   0.7121   0.7125   0.7129   0.7134   0.7138   0.7142   0.7146

 MOLE FRACTIONS

 *H               0.44546  0.45073  0.45600  0.46128  0.46655  0.47183  0.47711  0.48238
 *H2              0.55454  0.54927  0.54400  0.53872  0.53345  0.52817  0.52289  0.51762

  * THERMODYNAMIC PROPERTIES FITTED TO 20000.K

 NOTE. WEIGHT FRACTION OF FUEL IN TOTAL FUELS AND OF OXIDANT IN TOTAL OXIDANTS









               THERMODYNAMIC EQUILIBRIUM PROPERTIES AT ASSIGNED

                           TEMPERATURE AND PRESSURE

 CASE =                

             REACTANT                    WT FRACTION      ENERGY      TEMP
                                          (SEE NOTE)     KJ/KG-MOL      K  
             H2                           1.0000000         0.000      0.000

 O/F=    0.00000  %FUEL=100.000000  R,EQ.RATIO= 0.000000  PHI,EQ.RATIO= 0.000000

 THERMODYNAMIC PROPERTIES

 P, BAR            10.000   10.000   11.000   11.000   11.000   11.000   11.000   11.000
 T, K             4180.00  4190.00  4050.00  4060.00  4070.00  4080.00  4090.00  4100.00
 RHO, KG/CU M    4.3860-2 4.3603-2 5.2528-2 5.2230-2 5.1933-2 5.1637-2 5.1342-2 5.1049-2
 H, KJ/KG        140562.1 141824.0 122174.6 123302.1 124437.8 125581.7 126733.7 127893.6
 U, KJ/KG        117762.5 118890.0 101233.2 102241.2 103256.5 104279.1 105308.8 106345.6
 G, KJ/KG       -352389.7-353570.5-335304.3-336435.2-337569.0-338705.5-339844.9-340987.1
 S, KJ/(KG)(K)   117.9310 118.2326 112.9577 113.2358 113.5152 113.7959 114.0779 114.3612

 M, (1/n)           1.524    1.519    1.608    1.603    1.598    1.592    1.587    1.582
 (dLV/dLP)t      -1.10924 -1.11005 -1.09466 -1.09565 -1.09663 -1.09760 -1.09856 -1.09952
 (dLV/dLT)p        2.4567   2.4641   2.3020   2.3124   2.3227   2.3328   2.3427   2.3525
 Cp, KJ/(KG)(K)  125.8534 126.5225 112.3326 113.1615 113.9824 114.7949 115.5985 116.3927
 GAMMAs            1.1797   1.1801   1.1754   1.1757   1.1760   1.1763   1.1767   1.1770
 SON VEL,M/SEC     5186.2   5202.4   4961.4   4976.2   4991.0   5005.9   5020.9   5036.0

 TRANSPORT PROPERTIES (GASES ONLY)
   CONDUCTIVITY IN UNITS OF MILLIWATTS/(CM)(K)

 VISC,MILLIPOISE  0.68095  0.68207  0.66341  0.66495  0.66647  0.66797  0.66944  0.67089

  WITH EQUILIBRIUM REACTIONS

 Cp, KJ/(KG)(K)  125.8534 126.5225 112.3325 113.1615 113.9824 114.7949 115.5985 116.3927
 CONDUCTIVITY    155.9415 156.6291 141.3388 142.3331 143.3111 144.2723 145.2161 146.1420
 PRANDTL NUMBER    0.5496   0.5510   0.5273   0.5287   0.5301   0.5315   0.5329   0.5343

  WITH FROZEN REACTIONS

 Cp, KJ/(KG)(K)   19.8968  19.9077  19.7361  19.7476  19.7590  19.7705  19.7819  19.7932
 CONDUCTIVITY     18.9486  18.9792  18.4759  18.5192  18.5618  18.6037  18.6447  18.6850
 PRANDTL NUMBER    0.7150   0.7154   0.7087   0.7091   0.7095   0.7099   0.7103   0.7107

 MOLE FRACTIONS

 *H               0.48765  0.49292  0.40466  0.40980  0.41494  0.42010  0.42527  0.43044
 *H2              0.51235  0.50708  0.59534  0.59020  0.58506  0.57990  0.57473  0.56956

  * THERMODYNAMIC PROPERTIES FITTED TO 20000.K

 NOTE. WEIGHT FRACTION OF FUEL IN TOTAL FUELS AND OF OXIDANT IN TOTAL OXIDANTS









               THERMODYNAMIC EQUILIBRIUM PROPERTIES AT ASSIGNED

                           TEMPERATURE AND PRESSURE

 CASE =                

             REACTANT                    WT FRACTION      ENERGY      TEMP
                                          (SEE NOTE)     KJ/KG-MOL      K  
             H2                           1.0000000         0.000      0.000

 O/F=    0.00000  %FUEL=100.000000  R,EQ.RATIO= 0.000000  PHI,EQ.RATIO= 0.000000

 THERMODYNAMIC PROPERTIES

 P, BAR            11.000   11.000   11.000   11.000   11.000   11.000   11.000   11.000
 T, K             4110.00  4120.00  4130.00  4140.00  4150.00  4160.00  4170.00  4180.00
 RHO, KG/CU M    5.0756-2 5.0465-2 5.0175-2 4.9887-2 4.9600-2 4.9314-2 4.9029-2 4.8746-2
 H, KJ/KG        129061.5 130237.2 131420.5 132611.4 133809.8 135015.6 136228.5 137448.6
 U, KJ/KG        107389.4 108440.0 109497.4 110561.5 111632.2 112709.3 113792.8 114882.5
 G, KJ/KG       -342132.1-343280.0-344430.7-345584.4-346740.9-347900.3-349062.6-350227.8
 S, KJ/(KG)(K)   114.6456 114.9313 115.2182 115.5062 115.7953 116.0855 116.3768 116.6690

 M, (1/n)           1.577    1.572    1.566    1.561    1.556    1.551    1.545    1.540
 (dLV/dLP)t      -1.10046 -1.10139 -1.10232 -1.10323 -1.10412 -1.10501 -1.10588 -1.10674
 (dLV/dLT)p        2.3620   2.3714   2.3806   2.3896   2.3984   2.4069   2.4153   2.4234
 Cp, KJ/(KG)(K)  117.1773 117.9516 118.7152 119.4677 120.2087 120.9376 121.6540 122.3574
 GAMMAs            1.1773   1.1776   1.1780   1.1783   1.1787   1.1790   1.1794   1.1798
 SON VEL,M/SEC     5051.2   5066.5   5081.8   5097.3   5112.8   5128.3   5144.0   5159.8

 TRANSPORT PROPERTIES (GASES ONLY)
   CONDUCTIVITY IN UNITS OF MILLIWATTS/(CM)(K)

 VISC,MILLIPOISE  0.67232  0.67371  0.67508  0.67643  0.67775  0.67904  0.68030  0.68153

  WITH EQUILIBRIUM REACTIONS

 Cp, KJ/(KG)(K)  117.1773 117.9516 118.7152 119.4677 120.2087 120.9376 121.6540 122.3574
 CONDUCTIVITY    147.0494 147.9379 148.8068 149.6557 150.4841 151.2915 152.0773 152.8410
 PRANDTL NUMBER    0.5357   0.5372   0.5386   0.5400   0.5414   0.5428   0.5442   0.5456

  WITH FROZEN REACTIONS

 Cp, KJ/(KG)(K)   19.8045  19.8158  19.8270  19.8381  19.8492  19.8603  19.8713  19.8823
 CONDUCTIVITY     18.7245  18.7632  18.8011  18.8382  18.8745  18.9100  18.9447  18.9785
 PRANDTL NUMBER    0.7111   0.7115   0.7119   0.7123   0.7127   0.7132   0.7136   0.7140

 MOLE FRACTIONS

 *H               0.43562  0.44081  0.44600  0.45120  0.45640  0.46160  0.46680  0.47201
 *H2              0.56438  0.55919  0.55400  0.54880  0.54360  0.53840  0.53320  0.52799

  * THERMODYNAMIC PROPERTIES FITTED TO 20000.K

 NOTE. WEIGHT FRACTION OF FUEL IN TOTAL FUELS AND OF OXIDANT IN TOTAL OXIDANTS









               THERMODYNAMIC EQUILIBRIUM PROPERTIES AT ASSIGNED

                           TEMPERATURE AND PRESSURE

 CASE =                

             REACTANT                    WT FRACTION      ENERGY      TEMP
                                          (SEE NOTE)     KJ/KG-MOL      K  
             H2                           1.0000000         0.000      0.000

 O/F=    0.00000  %FUEL=100.000000  R,EQ.RATIO= 0.000000  PHI,EQ.RATIO= 0.000000

 THERMODYNAMIC PROPERTIES

 P, BAR            11.000
 T, K             4190.00
 RHO, KG/CU M    4.8464-2
 H, KJ/KG        138675.6
 U, KJ/KG        115978.2
 G, KJ/KG       -351396.0
 S, KJ/(KG)(K)   116.9622

 M, (1/n)           1.535
 (dLV/dLP)t      -1.10759
 (dLV/dLT)p        2.4313
 Cp, KJ/(KG)(K)  123.0475
 GAMMAs            1.1802
 SON VEL,M/SEC     5175.6

 TRANSPORT PROPERTIES (GASES ONLY)
   CONDUCTIVITY IN UNITS OF MILLIWATTS/(CM)(K)

 VISC,MILLIPOISE  0.68274

  WITH EQUILIBRIUM REACTIONS

 Cp, KJ/(KG)(K)  123.0475
 CONDUCTIVITY    153.5823
 PRANDTL NUMBER    0.5470

  WITH FROZEN REACTIONS

 Cp, KJ/(KG)(K)   19.8931
 CONDUCTIVITY     19.0116
 PRANDTL NUMBER    0.7144

 MOLE FRACTIONS

 *H               0.47721
 *H2              0.52279

  * THERMODYNAMIC PROPERTIES FITTED TO 20000.K

 NOTE. WEIGHT FRACTION OF FUEL IN TOTAL FUELS AND OF OXIDANT IN TOTAL OXIDANTS



  
