
 *******************************************************************************

         NASA-GLENN CHEMICAL EQUILIBRIUM PROGRAM CEA2, MAY 21, 2004
                   BY  BONNIE MCBRIDE AND SANFORD GORDON
      REFS: NASA RP-1311, PART I, 1994 AND NASA RP-1311, PART II, 1996

 *******************************************************************************



  prob tp ions
  p,bar= 12.0,13.2,14.8,16.5,18.0,20.0,22.5,25.0,28.0,31.0,35.0,39.0,44.0,49.0,54
 .0
  t,k= 1050,1060,1070,1080,1090,1100,1110,1120,1130,1140,1150,1160,1170,1180,1190
  
  reac
  na H2                wt%=100.0000
  
  output short
  output siunits
  output transport
  
 end





               THERMODYNAMIC EQUILIBRIUM PROPERTIES AT ASSIGNED

                           TEMPERATURE AND PRESSURE

 CASE =                

             REACTANT                    WT FRACTION      ENERGY      TEMP
                                          (SEE NOTE)     KJ/KG-MOL      K  
             H2                           1.0000000         0.000      0.000

 O/F=    0.00000  %FUEL=100.000000  R,EQ.RATIO= 0.000000  PHI,EQ.RATIO= 0.000000

 THERMODYNAMIC PROPERTIES

 P, BAR            12.000   12.000   12.000   12.000   12.000   12.000   12.000   12.000
 T, K             1050.00  1060.00  1070.00  1080.00  1090.00  1100.00  1110.00  1120.00
 RHO, KG/CU M    2.7709-1 2.7448-1 2.7191-1 2.6939-1 2.6692-1 2.6450-1 2.6211-1 2.5977-1
 H, KJ/KG         11009.4  11160.1  11311.1  11462.2  11613.6  11765.1  11916.8  12068.8
 U, KJ/KG         6678.64  6788.17  6897.89  7007.80  7117.90  7228.19  7338.67  7449.36
 G, KJ/KG        -65575.5 -66305.4 -67036.9 -67769.8 -68504.1 -69239.8 -69976.9 -70715.4
 S, KJ/(KG)(K)    72.9380  73.0807  73.2224  73.3630  73.5025  73.6409  73.7782  73.9145

 M, (1/n)           2.016    2.016    2.016    2.016    2.016    2.016    2.016    2.016
 (dLV/dLP)t      -1.00000 -1.00000 -0.99999 -0.99999 -0.99999 -0.99999 -0.99999 -0.99999
 (dLV/dLT)p        1.0000   1.0000   1.0000   1.0000   1.0000   1.0000   1.0000   1.0000
 Cp, KJ/(KG)(K)   15.0691  15.0873  15.1058  15.1247  15.1438  15.1633  15.1830  15.2030
 GAMMAs            1.3769   1.3762   1.3756   1.3750   1.3743   1.3736   1.3730   1.3723
 SON VEL,M/SEC     2441.9   2452.9   2463.9   2474.8   2485.6   2496.4   2507.1   2517.8

 TRANSPORT PROPERTIES (GASES ONLY)
   CONDUCTIVITY IN UNITS OF MILLIWATTS/(CM)(K)

 VISC,MILLIPOISE  0.21277  0.21419  0.21560  0.21701  0.21841  0.21980  0.22120  0.22258

  WITH EQUILIBRIUM REACTIONS

 Cp, KJ/(KG)(K)   15.0691  15.0873  15.1058  15.1247  15.1438  15.1633  15.1830  15.2030
 CONDUCTIVITY      4.6142   4.6493   4.6845   4.7198   4.7551   4.7905   4.8259   4.8614
 PRANDTL NUMBER    0.6949   0.6950   0.6952   0.6954   0.6956   0.6957   0.6959   0.6961

  WITH FROZEN REACTIONS

 Cp, KJ/(KG)(K)   15.0691  15.0873  15.1058  15.1247  15.1438  15.1633  15.1830  15.2029
 CONDUCTIVITY      4.6142   4.6493   4.6845   4.7198   4.7551   4.7905   4.8259   4.8614
 PRANDTL NUMBER    0.6949   0.6950   0.6952   0.6954   0.6956   0.6957   0.6959   0.6961

 MOLE FRACTIONS

 *H2              1.00000  1.00000  1.00000  1.00000  1.00000  1.00000  1.00000  1.00000

  * THERMODYNAMIC PROPERTIES FITTED TO 20000.K

 NOTE. WEIGHT FRACTION OF FUEL IN TOTAL FUELS AND OF OXIDANT IN TOTAL OXIDANTS









               THERMODYNAMIC EQUILIBRIUM PROPERTIES AT ASSIGNED

                           TEMPERATURE AND PRESSURE

 CASE =                

             REACTANT                    WT FRACTION      ENERGY      TEMP
                                          (SEE NOTE)     KJ/KG-MOL      K  
             H2                           1.0000000         0.000      0.000

 O/F=    0.00000  %FUEL=100.000000  R,EQ.RATIO= 0.000000  PHI,EQ.RATIO= 0.000000

 THERMODYNAMIC PROPERTIES

 P, BAR            12.000   12.000   12.000   12.000   12.000   12.000   12.000   13.200
 T, K             1130.00  1140.00  1150.00  1160.00  1170.00  1180.00  1190.00  1050.00
 RHO, KG/CU M    2.5747-1 2.5522-1 2.5300-1 2.5082-1 2.4867-1 2.4656-1 2.4449-1 3.0480-1
 H, KJ/KG         12220.9  12373.2  12525.8  12678.5  12831.5  12984.6  13138.0  11009.4
 U, KJ/KG         7560.24  7671.33  7782.62  7894.12  8005.83  8117.75  8229.88  6678.64
 G, KJ/KG        -71455.2 -72196.4 -72938.9 -73682.7 -74427.9 -75174.3 -75922.1 -65162.6
 S, KJ/(KG)(K)    74.0497  74.1839  74.3171  74.4494  74.5807  74.7110  74.8404  72.5447

 M, (1/n)           2.016    2.016    2.016    2.016    2.016    2.016    2.016    2.016
 (dLV/dLP)t      -0.99999 -0.99999 -0.99999 -0.99999 -0.99999 -0.99999 -0.99999 -1.00000
 (dLV/dLT)p        1.0000   1.0000   1.0000   1.0000   1.0000   1.0000   1.0000   1.0000
 Cp, KJ/(KG)(K)   15.2231  15.2435  15.2641  15.2849  15.3058  15.3269  15.3481  15.0691
 GAMMAs            1.3716   1.3709   1.3703   1.3696   1.3689   1.3682   1.3675   1.3769
 SON VEL,M/SEC     2528.4   2538.9   2549.4   2559.8   2570.2   2580.5   2590.7   2441.9

 TRANSPORT PROPERTIES (GASES ONLY)
   CONDUCTIVITY IN UNITS OF MILLIWATTS/(CM)(K)

 VISC,MILLIPOISE  0.22396  0.22534  0.22671  0.22808  0.22944  0.23080  0.23215  0.21277

  WITH EQUILIBRIUM REACTIONS

 Cp, KJ/(KG)(K)   15.2231  15.2435  15.2641  15.2849  15.3058  15.3269  15.3481  15.0691
 CONDUCTIVITY      4.8969   4.9324   4.9680   5.0036   5.0393   5.0750   5.1108   4.6141
 PRANDTL NUMBER    0.6962   0.6964   0.6966   0.6967   0.6969   0.6970   0.6972   0.6949

  WITH FROZEN REACTIONS

 Cp, KJ/(KG)(K)   15.2231  15.2435  15.2641  15.2848  15.3057  15.3268  15.3480  15.0691
 CONDUCTIVITY      4.8969   4.9324   4.9680   5.0036   5.0393   5.0750   5.1107   4.6141
 PRANDTL NUMBER    0.6962   0.6964   0.6966   0.6967   0.6969   0.6970   0.6972   0.6949

 MOLE FRACTIONS

 *H2              1.00000  1.00000  1.00000  1.00000  1.00000  1.00000  1.00000  1.00000

  * THERMODYNAMIC PROPERTIES FITTED TO 20000.K

 NOTE. WEIGHT FRACTION OF FUEL IN TOTAL FUELS AND OF OXIDANT IN TOTAL OXIDANTS









               THERMODYNAMIC EQUILIBRIUM PROPERTIES AT ASSIGNED

                           TEMPERATURE AND PRESSURE

 CASE =                

             REACTANT                    WT FRACTION      ENERGY      TEMP
                                          (SEE NOTE)     KJ/KG-MOL      K  
             H2                           1.0000000         0.000      0.000

 O/F=    0.00000  %FUEL=100.000000  R,EQ.RATIO= 0.000000  PHI,EQ.RATIO= 0.000000

 THERMODYNAMIC PROPERTIES

 P, BAR            13.200   13.200   13.200   13.200   13.200   13.200   13.200   13.200
 T, K             1060.00  1070.00  1080.00  1090.00  1100.00  1110.00  1120.00  1130.00
 RHO, KG/CU M    3.0192-1 2.9910-1 2.9633-1 2.9361-1 2.9095-1 2.8832-1 2.8575-1 2.8322-1
 H, KJ/KG         11160.1  11311.1  11462.2  11613.6  11765.1  11916.8  12068.8  12220.9
 U, KJ/KG         6788.17  6897.89  7007.80  7117.90  7228.19  7338.67  7449.36  7560.24
 G, KJ/KG        -65888.7 -66616.3 -67345.2 -68075.6 -68807.4 -69540.6 -70275.1 -71011.0
 S, KJ/(KG)(K)    72.6876  72.8293  72.9699  73.1094  73.2478  73.3851  73.5213  73.6566

 M, (1/n)           2.016    2.016    2.016    2.016    2.016    2.016    2.016    2.016
 (dLV/dLP)t      -0.99999 -0.99999 -0.99999 -0.99999 -0.99999 -0.99999 -0.99999 -0.99999
 (dLV/dLT)p        1.0000   1.0000   1.0000   1.0000   1.0000   1.0000   1.0000   1.0000
 Cp, KJ/(KG)(K)   15.0872  15.1058  15.1247  15.1438  15.1633  15.1830  15.2030  15.2231
 GAMMAs            1.3762   1.3756   1.3750   1.3743   1.3736   1.3730   1.3723   1.3716
 SON VEL,M/SEC     2452.9   2463.9   2474.8   2485.6   2496.4   2507.1   2517.8   2528.4

 TRANSPORT PROPERTIES (GASES ONLY)
   CONDUCTIVITY IN UNITS OF MILLIWATTS/(CM)(K)

 VISC,MILLIPOISE  0.21419  0.21560  0.21701  0.21841  0.21980  0.22120  0.22258  0.22396

  WITH EQUILIBRIUM REACTIONS

 Cp, KJ/(KG)(K)   15.0873  15.1058  15.1247  15.1438  15.1633  15.1830  15.2030  15.2231
 CONDUCTIVITY      4.6493   4.6845   4.7198   4.7551   4.7905   4.8259   4.8614   4.8969
 PRANDTL NUMBER    0.6951   0.6952   0.6954   0.6956   0.6957   0.6959   0.6961   0.6962

  WITH FROZEN REACTIONS

 Cp, KJ/(KG)(K)   15.0872  15.1058  15.1247  15.1438  15.1633  15.1830  15.2029  15.2231
 CONDUCTIVITY      4.6493   4.6845   4.7198   4.7551   4.7905   4.8259   4.8614   4.8969
 PRANDTL NUMBER    0.6951   0.6952   0.6954   0.6956   0.6957   0.6959   0.6961   0.6962

 MOLE FRACTIONS

 *H2              1.00000  1.00000  1.00000  1.00000  1.00000  1.00000  1.00000  1.00000

  * THERMODYNAMIC PROPERTIES FITTED TO 20000.K

 NOTE. WEIGHT FRACTION OF FUEL IN TOTAL FUELS AND OF OXIDANT IN TOTAL OXIDANTS









               THERMODYNAMIC EQUILIBRIUM PROPERTIES AT ASSIGNED

                           TEMPERATURE AND PRESSURE

 CASE =                

             REACTANT                    WT FRACTION      ENERGY      TEMP
                                          (SEE NOTE)     KJ/KG-MOL      K  
             H2                           1.0000000         0.000      0.000

 O/F=    0.00000  %FUEL=100.000000  R,EQ.RATIO= 0.000000  PHI,EQ.RATIO= 0.000000

 THERMODYNAMIC PROPERTIES

 P, BAR            13.200   13.200   13.200   13.200   13.200   13.200   14.800   14.800
 T, K             1140.00  1150.00  1160.00  1170.00  1180.00  1190.00  1050.00  1060.00
 RHO, KG/CU M    2.8074-1 2.7830-1 2.7590-1 2.7354-1 2.7122-1 2.6894-1 3.4174-1 3.3852-1
 H, KJ/KG         12373.2  12525.8  12678.5  12831.5  12984.6  13138.0  11009.4  11160.1
 U, KJ/KG         7671.33  7782.62  7894.12  8005.83  8117.75  8229.88  6678.64  6788.17
 G, KJ/KG        -71748.3 -72486.8 -73226.7 -73968.0 -74710.5 -75454.3 -64667.1 -65388.5
 S, KJ/(KG)(K)    73.7908  73.9240  74.0563  74.1875  74.3179  74.4473  72.0728  72.2157

 M, (1/n)           2.016    2.016    2.016    2.016    2.016    2.016    2.016    2.016
 (dLV/dLP)t      -0.99999 -0.99999 -0.99999 -0.99999 -0.99999 -0.99999 -1.00000 -0.99999
 (dLV/dLT)p        1.0000   1.0000   1.0000   1.0000   1.0000   1.0000   1.0000   1.0000
 Cp, KJ/(KG)(K)   15.2435  15.2641  15.2849  15.3058  15.3269  15.3481  15.0691  15.0872
 GAMMAs            1.3709   1.3703   1.3696   1.3689   1.3682   1.3675   1.3769   1.3762
 SON VEL,M/SEC     2538.9   2549.4   2559.8   2570.2   2580.5   2590.7   2441.9   2452.9

 TRANSPORT PROPERTIES (GASES ONLY)
   CONDUCTIVITY IN UNITS OF MILLIWATTS/(CM)(K)

 VISC,MILLIPOISE  0.22534  0.22671  0.22808  0.22944  0.23080  0.23215  0.21277  0.21419

  WITH EQUILIBRIUM REACTIONS

 Cp, KJ/(KG)(K)   15.2435  15.2641  15.2849  15.3058  15.3269  15.3481  15.0691  15.0873
 CONDUCTIVITY      4.9324   4.9680   5.0036   5.0393   5.0750   5.1108   4.6141   4.6493
 PRANDTL NUMBER    0.6964   0.6966   0.6967   0.6969   0.6970   0.6972   0.6949   0.6951

  WITH FROZEN REACTIONS

 Cp, KJ/(KG)(K)   15.2435  15.2641  15.2848  15.3057  15.3268  15.3480  15.0691  15.0872
 CONDUCTIVITY      4.9324   4.9680   5.0036   5.0393   5.0750   5.1107   4.6141   4.6493
 PRANDTL NUMBER    0.6964   0.6966   0.6967   0.6969   0.6970   0.6972   0.6949   0.6951

 MOLE FRACTIONS

 *H2              1.00000  1.00000  1.00000  1.00000  1.00000  1.00000  1.00000  1.00000

  * THERMODYNAMIC PROPERTIES FITTED TO 20000.K

 NOTE. WEIGHT FRACTION OF FUEL IN TOTAL FUELS AND OF OXIDANT IN TOTAL OXIDANTS









               THERMODYNAMIC EQUILIBRIUM PROPERTIES AT ASSIGNED

                           TEMPERATURE AND PRESSURE

 CASE =                

             REACTANT                    WT FRACTION      ENERGY      TEMP
                                          (SEE NOTE)     KJ/KG-MOL      K  
             H2                           1.0000000         0.000      0.000

 O/F=    0.00000  %FUEL=100.000000  R,EQ.RATIO= 0.000000  PHI,EQ.RATIO= 0.000000

 THERMODYNAMIC PROPERTIES

 P, BAR            14.800   14.800   14.800   14.800   14.800   14.800   14.800   14.800
 T, K             1070.00  1080.00  1090.00  1100.00  1110.00  1120.00  1130.00  1140.00
 RHO, KG/CU M    3.3536-1 3.3225-1 3.2920-1 3.2621-1 3.2327-1 3.2039-1 3.1755-1 3.1477-1
 H, KJ/KG         11311.1  11462.2  11613.6  11765.1  11916.8  12068.8  12220.9  12373.2
 U, KJ/KG         6897.89  7007.80  7117.90  7228.19  7338.67  7449.36  7560.24  7671.33
 G, KJ/KG        -66111.3 -66835.6 -67561.3 -68288.4 -69016.8 -69746.6 -70477.8 -71210.3
 S, KJ/(KG)(K)    72.3574  72.4980  72.6375  72.7759  72.9132  73.0495  73.1847  73.3189

 M, (1/n)           2.016    2.016    2.016    2.016    2.016    2.016    2.016    2.016
 (dLV/dLP)t      -0.99999 -0.99999 -0.99999 -0.99999 -0.99999 -0.99999 -0.99999 -0.99999
 (dLV/dLT)p        1.0000   1.0000   1.0000   1.0000   1.0000   1.0000   1.0000   1.0000
 Cp, KJ/(KG)(K)   15.1058  15.1247  15.1438  15.1633  15.1830  15.2029  15.2231  15.2435
 GAMMAs            1.3756   1.3750   1.3743   1.3736   1.3730   1.3723   1.3716   1.3709
 SON VEL,M/SEC     2463.9   2474.8   2485.6   2496.4   2507.1   2517.8   2528.4   2538.9

 TRANSPORT PROPERTIES (GASES ONLY)
   CONDUCTIVITY IN UNITS OF MILLIWATTS/(CM)(K)

 VISC,MILLIPOISE  0.21560  0.21701  0.21841  0.21980  0.22120  0.22258  0.22396  0.22534

  WITH EQUILIBRIUM REACTIONS

 Cp, KJ/(KG)(K)   15.1058  15.1247  15.1438  15.1633  15.1830  15.2029  15.2231  15.2435
 CONDUCTIVITY      4.6845   4.7198   4.7551   4.7905   4.8259   4.8614   4.8969   4.9324
 PRANDTL NUMBER    0.6952   0.6954   0.6956   0.6957   0.6959   0.6961   0.6962   0.6964

  WITH FROZEN REACTIONS

 Cp, KJ/(KG)(K)   15.1058  15.1247  15.1438  15.1633  15.1830  15.2029  15.2231  15.2435
 CONDUCTIVITY      4.6845   4.7198   4.7551   4.7905   4.8259   4.8614   4.8969   4.9324
 PRANDTL NUMBER    0.6952   0.6954   0.6956   0.6957   0.6959   0.6961   0.6962   0.6964

 MOLE FRACTIONS

 *H2              1.00000  1.00000  1.00000  1.00000  1.00000  1.00000  1.00000  1.00000

  * THERMODYNAMIC PROPERTIES FITTED TO 20000.K

 NOTE. WEIGHT FRACTION OF FUEL IN TOTAL FUELS AND OF OXIDANT IN TOTAL OXIDANTS









               THERMODYNAMIC EQUILIBRIUM PROPERTIES AT ASSIGNED

                           TEMPERATURE AND PRESSURE

 CASE =                

             REACTANT                    WT FRACTION      ENERGY      TEMP
                                          (SEE NOTE)     KJ/KG-MOL      K  
             H2                           1.0000000         0.000      0.000

 O/F=    0.00000  %FUEL=100.000000  R,EQ.RATIO= 0.000000  PHI,EQ.RATIO= 0.000000

 THERMODYNAMIC PROPERTIES

 P, BAR            14.800   14.800   14.800   14.800   14.800   16.500   16.500   16.500
 T, K             1150.00  1160.00  1170.00  1180.00  1190.00  1050.00  1060.00  1070.00
 RHO, KG/CU M    3.1203-1 3.0934-1 3.0669-1 3.0410-1 3.0154-1 3.8100-1 3.7741-1 3.7388-1
 H, KJ/KG         12525.8  12678.5  12831.5  12984.6  13138.0  11009.4  11160.1  11311.1
 U, KJ/KG         7782.62  7894.12  8005.83  8117.75  8229.88  6678.64  6788.17  6897.89
 G, KJ/KG        -71944.2 -72679.3 -73415.8 -74153.7 -74892.8 -64196.2 -64913.1 -65631.5
 S, KJ/(KG)(K)    73.4521  73.5844  73.7157  73.8460  73.9754  71.6243  71.7672  71.9089

 M, (1/n)           2.016    2.016    2.016    2.016    2.016    2.016    2.016    2.016
 (dLV/dLP)t      -0.99999 -0.99999 -0.99999 -0.99999 -0.99999 -1.00000 -0.99999 -0.99999
 (dLV/dLT)p        1.0000   1.0000   1.0000   1.0000   1.0000   1.0000   1.0000   1.0000
 Cp, KJ/(KG)(K)   15.2641  15.2849  15.3058  15.3268  15.3481  15.0691  15.0872  15.1058
 GAMMAs            1.3703   1.3696   1.3689   1.3682   1.3675   1.3769   1.3762   1.3756
 SON VEL,M/SEC     2549.4   2559.8   2570.2   2580.5   2590.7   2441.9   2452.9   2463.9

 TRANSPORT PROPERTIES (GASES ONLY)
   CONDUCTIVITY IN UNITS OF MILLIWATTS/(CM)(K)

 VISC,MILLIPOISE  0.22671  0.22808  0.22944  0.23080  0.23215  0.21277  0.21419  0.21560

  WITH EQUILIBRIUM REACTIONS

 Cp, KJ/(KG)(K)   15.2641  15.2849  15.3058  15.3268  15.3481  15.0691  15.0873  15.1058
 CONDUCTIVITY      4.9680   5.0036   5.0393   5.0750   5.1108   4.6141   4.6493   4.6845
 PRANDTL NUMBER    0.6966   0.6967   0.6969   0.6970   0.6972   0.6949   0.6951   0.6952

  WITH FROZEN REACTIONS

 Cp, KJ/(KG)(K)   15.2641  15.2848  15.3057  15.3268  15.3480  15.0691  15.0872  15.1058
 CONDUCTIVITY      4.9680   5.0036   5.0393   5.0750   5.1107   4.6141   4.6493   4.6845
 PRANDTL NUMBER    0.6966   0.6967   0.6969   0.6970   0.6972   0.6949   0.6951   0.6952

 MOLE FRACTIONS

 *H2              1.00000  1.00000  1.00000  1.00000  1.00000  1.00000  1.00000  1.00000

  * THERMODYNAMIC PROPERTIES FITTED TO 20000.K

 NOTE. WEIGHT FRACTION OF FUEL IN TOTAL FUELS AND OF OXIDANT IN TOTAL OXIDANTS









               THERMODYNAMIC EQUILIBRIUM PROPERTIES AT ASSIGNED

                           TEMPERATURE AND PRESSURE

 CASE =                

             REACTANT                    WT FRACTION      ENERGY      TEMP
                                          (SEE NOTE)     KJ/KG-MOL      K  
             H2                           1.0000000         0.000      0.000

 O/F=    0.00000  %FUEL=100.000000  R,EQ.RATIO= 0.000000  PHI,EQ.RATIO= 0.000000

 THERMODYNAMIC PROPERTIES

 P, BAR            16.500   16.500   16.500   16.500   16.500   16.500   16.500   16.500
 T, K             1080.00  1090.00  1100.00  1110.00  1120.00  1130.00  1140.00  1150.00
 RHO, KG/CU M    3.7042-1 3.6702-1 3.6368-1 3.6041-1 3.5719-1 3.5403-1 3.5092-1 3.4787-1
 H, KJ/KG         11462.2  11613.6  11765.1  11916.8  12068.8  12220.9  12373.2  12525.8
 U, KJ/KG         7007.80  7117.90  7228.19  7338.67  7449.36  7560.24  7671.33  7782.62
 G, KJ/KG        -66351.3 -67072.5 -67795.0 -68519.0 -69244.3 -69971.0 -70699.0 -71428.4
 S, KJ/(KG)(K)    72.0495  72.1890  72.3274  72.4647  72.6010  72.7362  72.8704  73.0037

 M, (1/n)           2.016    2.016    2.016    2.016    2.016    2.016    2.016    2.016
 (dLV/dLP)t      -0.99999 -0.99999 -0.99999 -0.99999 -0.99999 -0.99999 -0.99999 -0.99999
 (dLV/dLT)p        1.0000   1.0000   1.0000   1.0000   1.0000   1.0000   1.0000   1.0000
 Cp, KJ/(KG)(K)   15.1247  15.1438  15.1633  15.1830  15.2029  15.2231  15.2435  15.2641
 GAMMAs            1.3750   1.3743   1.3736   1.3730   1.3723   1.3716   1.3709   1.3703
 SON VEL,M/SEC     2474.8   2485.6   2496.4   2507.1   2517.8   2528.4   2538.9   2549.4

 TRANSPORT PROPERTIES (GASES ONLY)
   CONDUCTIVITY IN UNITS OF MILLIWATTS/(CM)(K)

 VISC,MILLIPOISE  0.21701  0.21841  0.21980  0.22120  0.22258  0.22396  0.22534  0.22671

  WITH EQUILIBRIUM REACTIONS

 Cp, KJ/(KG)(K)   15.1247  15.1438  15.1633  15.1830  15.2029  15.2231  15.2435  15.2641
 CONDUCTIVITY      4.7198   4.7551   4.7905   4.8259   4.8614   4.8969   4.9324   4.9680
 PRANDTL NUMBER    0.6954   0.6956   0.6957   0.6959   0.6961   0.6962   0.6964   0.6966

  WITH FROZEN REACTIONS

 Cp, KJ/(KG)(K)   15.1247  15.1438  15.1633  15.1830  15.2029  15.2231  15.2435  15.2641
 CONDUCTIVITY      4.7198   4.7551   4.7905   4.8259   4.8614   4.8969   4.9324   4.9680
 PRANDTL NUMBER    0.6954   0.6956   0.6957   0.6959   0.6961   0.6962   0.6964   0.6966

 MOLE FRACTIONS

 *H2              1.00000  1.00000  1.00000  1.00000  1.00000  1.00000  1.00000  1.00000

  * THERMODYNAMIC PROPERTIES FITTED TO 20000.K

 NOTE. WEIGHT FRACTION OF FUEL IN TOTAL FUELS AND OF OXIDANT IN TOTAL OXIDANTS









               THERMODYNAMIC EQUILIBRIUM PROPERTIES AT ASSIGNED

                           TEMPERATURE AND PRESSURE

 CASE =                

             REACTANT                    WT FRACTION      ENERGY      TEMP
                                          (SEE NOTE)     KJ/KG-MOL      K  
             H2                           1.0000000         0.000      0.000

 O/F=    0.00000  %FUEL=100.000000  R,EQ.RATIO= 0.000000  PHI,EQ.RATIO= 0.000000

 THERMODYNAMIC PROPERTIES

 P, BAR            16.500   16.500   16.500   16.500   18.000   18.000   18.000   18.000
 T, K             1160.00  1170.00  1180.00  1190.00  1050.00  1060.00  1070.00  1080.00
 RHO, KG/CU M    3.4487-1 3.4192-1 3.3903-1 3.3618-1 4.1564-1 4.1171-1 4.0787-1 4.0409-1
 H, KJ/KG         12678.5  12831.5  12984.6  13138.0  11009.4  11160.1  11311.1  11462.2
 U, KJ/KG         7894.12  8005.83  8117.75  8229.88  6678.64  6788.17  6897.89  7007.80
 G, KJ/KG        -72159.1 -72891.1 -73624.5 -74359.1 -63819.4 -64532.7 -65247.5 -65963.7
 S, KJ/(KG)(K)    73.1359  73.2672  73.3975  73.5270  71.2655  71.4083  71.5501  71.6907

 M, (1/n)           2.016    2.016    2.016    2.016    2.016    2.016    2.016    2.016
 (dLV/dLP)t      -0.99999 -0.99999 -0.99999 -0.99999 -1.00000 -0.99999 -0.99999 -0.99999
 (dLV/dLT)p        1.0000   1.0000   1.0000   1.0000   1.0000   1.0000   1.0000   1.0000
 Cp, KJ/(KG)(K)   15.2849  15.3058  15.3268  15.3481  15.0691  15.0872  15.1058  15.1247
 GAMMAs            1.3696   1.3689   1.3682   1.3675   1.3769   1.3762   1.3756   1.3750
 SON VEL,M/SEC     2559.8   2570.2   2580.5   2590.7   2441.9   2452.9   2463.9   2474.8

 TRANSPORT PROPERTIES (GASES ONLY)
   CONDUCTIVITY IN UNITS OF MILLIWATTS/(CM)(K)

 VISC,MILLIPOISE  0.22808  0.22944  0.23080  0.23215  0.21277  0.21419  0.21560  0.21701

  WITH EQUILIBRIUM REACTIONS

 Cp, KJ/(KG)(K)   15.2849  15.3058  15.3268  15.3481  15.0691  15.0873  15.1058  15.1247
 CONDUCTIVITY      5.0036   5.0393   5.0750   5.1108   4.6141   4.6493   4.6845   4.7198
 PRANDTL NUMBER    0.6967   0.6969   0.6970   0.6972   0.6949   0.6951   0.6952   0.6954

  WITH FROZEN REACTIONS

 Cp, KJ/(KG)(K)   15.2848  15.3057  15.3268  15.3480  15.0691  15.0872  15.1058  15.1247
 CONDUCTIVITY      5.0036   5.0393   5.0750   5.1107   4.6141   4.6493   4.6845   4.7198
 PRANDTL NUMBER    0.6967   0.6969   0.6970   0.6972   0.6949   0.6951   0.6952   0.6954

 MOLE FRACTIONS

 *H2              1.00000  1.00000  1.00000  1.00000  1.00000  1.00000  1.00000  1.00000

  * THERMODYNAMIC PROPERTIES FITTED TO 20000.K

 NOTE. WEIGHT FRACTION OF FUEL IN TOTAL FUELS AND OF OXIDANT IN TOTAL OXIDANTS









               THERMODYNAMIC EQUILIBRIUM PROPERTIES AT ASSIGNED

                           TEMPERATURE AND PRESSURE

 CASE =                

             REACTANT                    WT FRACTION      ENERGY      TEMP
                                          (SEE NOTE)     KJ/KG-MOL      K  
             H2                           1.0000000         0.000      0.000

 O/F=    0.00000  %FUEL=100.000000  R,EQ.RATIO= 0.000000  PHI,EQ.RATIO= 0.000000

 THERMODYNAMIC PROPERTIES

 P, BAR            18.000   18.000   18.000   18.000   18.000   18.000   18.000   18.000
 T, K             1090.00  1100.00  1110.00  1120.00  1130.00  1140.00  1150.00  1160.00
 RHO, KG/CU M    4.0038-1 3.9674-1 3.9317-1 3.8966-1 3.8621-1 3.8282-1 3.7949-1 3.7622-1
 H, KJ/KG         11613.6  11765.1  11916.8  12068.8  12220.9  12373.2  12525.8  12678.5
 U, KJ/KG         7117.90  7228.19  7338.67  7449.36  7560.24  7671.33  7782.62  7894.12
 G, KJ/KG        -66681.3 -67400.3 -68120.6 -68842.4 -69565.5 -70289.9 -71015.7 -71742.8
 S, KJ/(KG)(K)    71.8301  71.9685  72.1058  72.2421  72.3773  72.5116  72.6448  72.7770

 M, (1/n)           2.016    2.016    2.016    2.016    2.016    2.016    2.016    2.016
 (dLV/dLP)t      -0.99999 -0.99999 -0.99999 -0.99999 -0.99999 -0.99999 -0.99999 -0.99999
 (dLV/dLT)p        1.0000   1.0000   1.0000   1.0000   1.0000   1.0000   1.0000   1.0000
 Cp, KJ/(KG)(K)   15.1438  15.1633  15.1830  15.2029  15.2231  15.2435  15.2641  15.2849
 GAMMAs            1.3743   1.3736   1.3730   1.3723   1.3716   1.3709   1.3703   1.3696
 SON VEL,M/SEC     2485.6   2496.4   2507.1   2517.8   2528.4   2538.9   2549.4   2559.8

 TRANSPORT PROPERTIES (GASES ONLY)
   CONDUCTIVITY IN UNITS OF MILLIWATTS/(CM)(K)

 VISC,MILLIPOISE  0.21841  0.21980  0.22120  0.22258  0.22396  0.22534  0.22671  0.22808

  WITH EQUILIBRIUM REACTIONS

 Cp, KJ/(KG)(K)   15.1438  15.1633  15.1830  15.2029  15.2231  15.2435  15.2641  15.2849
 CONDUCTIVITY      4.7551   4.7905   4.8259   4.8614   4.8969   4.9324   4.9680   5.0036
 PRANDTL NUMBER    0.6956   0.6957   0.6959   0.6961   0.6962   0.6964   0.6966   0.6967

  WITH FROZEN REACTIONS

 Cp, KJ/(KG)(K)   15.1438  15.1633  15.1830  15.2029  15.2231  15.2435  15.2641  15.2848
 CONDUCTIVITY      4.7551   4.7905   4.8259   4.8614   4.8969   4.9324   4.9680   5.0036
 PRANDTL NUMBER    0.6956   0.6957   0.6959   0.6961   0.6962   0.6964   0.6966   0.6967

 MOLE FRACTIONS

 *H2              1.00000  1.00000  1.00000  1.00000  1.00000  1.00000  1.00000  1.00000

  * THERMODYNAMIC PROPERTIES FITTED TO 20000.K

 NOTE. WEIGHT FRACTION OF FUEL IN TOTAL FUELS AND OF OXIDANT IN TOTAL OXIDANTS









               THERMODYNAMIC EQUILIBRIUM PROPERTIES AT ASSIGNED

                           TEMPERATURE AND PRESSURE

 CASE =                

             REACTANT                    WT FRACTION      ENERGY      TEMP
                                          (SEE NOTE)     KJ/KG-MOL      K  
             H2                           1.0000000         0.000      0.000

 O/F=    0.00000  %FUEL=100.000000  R,EQ.RATIO= 0.000000  PHI,EQ.RATIO= 0.000000

 THERMODYNAMIC PROPERTIES

 P, BAR            18.000   18.000   18.000   20.000   20.000   20.000   20.000   20.000
 T, K             1170.00  1180.00  1190.00  1050.00  1060.00  1070.00  1080.00  1090.00
 RHO, KG/CU M    3.7301-1 3.6985-1 3.6674-1 4.6182-1 4.5746-1 4.5319-1 4.4899-1 4.4487-1
 H, KJ/KG         12831.5  12984.6  13138.0  11009.4  11160.1  11311.1  11462.2  11613.6
 U, KJ/KG         8005.83  8117.75  8229.88  6678.64  6788.17  6897.89  7007.80  7117.90
 G, KJ/KG        -72471.2 -73201.0 -73932.0 -63363.1 -64072.1 -64782.5 -65494.3 -66207.6
 S, KJ/(KG)(K)    72.9083  73.0387  73.1681  70.8309  70.9738  71.1155  71.2561  71.3956

 M, (1/n)           2.016    2.016    2.016    2.016    2.016    2.016    2.016    2.016
 (dLV/dLP)t      -0.99999 -0.99999 -0.99999 -1.00000 -0.99999 -0.99999 -0.99999 -0.99999
 (dLV/dLT)p        1.0000   1.0000   1.0000   1.0000   1.0000   1.0000   1.0000   1.0000
 Cp, KJ/(KG)(K)   15.3058  15.3268  15.3480  15.0691  15.0872  15.1058  15.1247  15.1438
 GAMMAs            1.3689   1.3682   1.3675   1.3769   1.3762   1.3756   1.3750   1.3743
 SON VEL,M/SEC     2570.2   2580.5   2590.7   2441.9   2452.9   2463.9   2474.8   2485.6

 TRANSPORT PROPERTIES (GASES ONLY)
   CONDUCTIVITY IN UNITS OF MILLIWATTS/(CM)(K)

 VISC,MILLIPOISE  0.22944  0.23080  0.23215  0.21277  0.21419  0.21560  0.21701  0.21841

  WITH EQUILIBRIUM REACTIONS

 Cp, KJ/(KG)(K)   15.3058  15.3268  15.3480  15.0691  15.0873  15.1058  15.1247  15.1438
 CONDUCTIVITY      5.0393   5.0750   5.1108   4.6141   4.6493   4.6845   4.7198   4.7551
 PRANDTL NUMBER    0.6969   0.6970   0.6972   0.6949   0.6951   0.6952   0.6954   0.6956

  WITH FROZEN REACTIONS

 Cp, KJ/(KG)(K)   15.3057  15.3268  15.3480  15.0691  15.0872  15.1058  15.1247  15.1438
 CONDUCTIVITY      5.0393   5.0750   5.1107   4.6141   4.6493   4.6845   4.7198   4.7551
 PRANDTL NUMBER    0.6969   0.6970   0.6972   0.6949   0.6951   0.6952   0.6954   0.6956

 MOLE FRACTIONS

 *H2              1.00000  1.00000  1.00000  1.00000  1.00000  1.00000  1.00000  1.00000

  * THERMODYNAMIC PROPERTIES FITTED TO 20000.K

 NOTE. WEIGHT FRACTION OF FUEL IN TOTAL FUELS AND OF OXIDANT IN TOTAL OXIDANTS









               THERMODYNAMIC EQUILIBRIUM PROPERTIES AT ASSIGNED

                           TEMPERATURE AND PRESSURE

 CASE =                

             REACTANT                    WT FRACTION      ENERGY      TEMP
                                          (SEE NOTE)     KJ/KG-MOL      K  
             H2                           1.0000000         0.000      0.000

 O/F=    0.00000  %FUEL=100.000000  R,EQ.RATIO= 0.000000  PHI,EQ.RATIO= 0.000000

 THERMODYNAMIC PROPERTIES

 P, BAR            20.000   20.000   20.000   20.000   20.000   20.000   20.000   20.000
 T, K             1100.00  1110.00  1120.00  1130.00  1140.00  1150.00  1160.00  1170.00
 RHO, KG/CU M    4.4083-1 4.3686-1 4.3295-1 4.2912-1 4.2536-1 4.2166-1 4.1803-1 4.1445-1
 H, KJ/KG         11765.1  11916.8  12068.8  12220.9  12373.2  12525.8  12678.5  12831.5
 U, KJ/KG         7228.19  7338.67  7449.36  7560.24  7671.33  7782.62  7894.12  8005.83
 G, KJ/KG        -66922.3 -67638.3 -68355.7 -69074.4 -69794.5 -70516.0 -71238.7 -71962.8
 S, KJ/(KG)(K)    71.5340  71.6713  71.8075  71.9428  72.0770  72.2102  72.3425  72.4737

 M, (1/n)           2.016    2.016    2.016    2.016    2.016    2.016    2.016    2.016
 (dLV/dLP)t      -0.99999 -0.99999 -0.99999 -0.99999 -0.99999 -0.99999 -0.99999 -0.99999
 (dLV/dLT)p        1.0000   1.0000   1.0000   1.0000   1.0000   1.0000   1.0000   1.0000
 Cp, KJ/(KG)(K)   15.1633  15.1830  15.2029  15.2231  15.2435  15.2641  15.2848  15.3058
 GAMMAs            1.3736   1.3730   1.3723   1.3716   1.3709   1.3703   1.3696   1.3689
 SON VEL,M/SEC     2496.4   2507.1   2517.8   2528.4   2538.9   2549.4   2559.8   2570.2

 TRANSPORT PROPERTIES (GASES ONLY)
   CONDUCTIVITY IN UNITS OF MILLIWATTS/(CM)(K)

 VISC,MILLIPOISE  0.21980  0.22120  0.22258  0.22396  0.22534  0.22671  0.22808  0.22944

  WITH EQUILIBRIUM REACTIONS

 Cp, KJ/(KG)(K)   15.1633  15.1830  15.2029  15.2231  15.2435  15.2641  15.2848  15.3058
 CONDUCTIVITY      4.7905   4.8259   4.8614   4.8969   4.9324   4.9680   5.0036   5.0393
 PRANDTL NUMBER    0.6957   0.6959   0.6961   0.6962   0.6964   0.6966   0.6967   0.6969

  WITH FROZEN REACTIONS

 Cp, KJ/(KG)(K)   15.1633  15.1830  15.2029  15.2231  15.2435  15.2641  15.2848  15.3057
 CONDUCTIVITY      4.7905   4.8259   4.8614   4.8969   4.9324   4.9680   5.0036   5.0393
 PRANDTL NUMBER    0.6957   0.6959   0.6961   0.6962   0.6964   0.6966   0.6967   0.6969

 MOLE FRACTIONS

 *H2              1.00000  1.00000  1.00000  1.00000  1.00000  1.00000  1.00000  1.00000

  * THERMODYNAMIC PROPERTIES FITTED TO 20000.K

 NOTE. WEIGHT FRACTION OF FUEL IN TOTAL FUELS AND OF OXIDANT IN TOTAL OXIDANTS









               THERMODYNAMIC EQUILIBRIUM PROPERTIES AT ASSIGNED

                           TEMPERATURE AND PRESSURE

 CASE =                

             REACTANT                    WT FRACTION      ENERGY      TEMP
                                          (SEE NOTE)     KJ/KG-MOL      K  
             H2                           1.0000000         0.000      0.000

 O/F=    0.00000  %FUEL=100.000000  R,EQ.RATIO= 0.000000  PHI,EQ.RATIO= 0.000000

 THERMODYNAMIC PROPERTIES

 P, BAR            20.000   20.000   22.500   22.500   22.500   22.500   22.500   22.500
 T, K             1180.00  1190.00  1050.00  1060.00  1070.00  1080.00  1090.00  1100.00
 RHO, KG/CU M    4.1094-1 4.0749-1 5.1954-1 5.1464-1 5.0983-1 5.0511-1 5.0048-1 4.9593-1
 H, KJ/KG         12984.6  13138.0  11009.4  11160.1  11311.1  11462.2  11613.6  11765.1
 U, KJ/KG         8117.75  8229.88  6678.64  6788.17  6897.89  7007.80  7117.90  7228.19
 G, KJ/KG        -72688.2 -73414.9 -62853.0 -63557.1 -64262.7 -64969.7 -65678.1 -66387.9
 S, KJ/(KG)(K)    72.6041  72.7335  70.3451  70.4880  70.6297  70.7703  70.9098  71.0482

 M, (1/n)           2.016    2.016    2.016    2.016    2.016    2.016    2.016    2.016
 (dLV/dLP)t      -0.99999 -0.99999 -1.00000 -0.99999 -0.99999 -0.99999 -0.99999 -0.99999
 (dLV/dLT)p        1.0000   1.0000   1.0000   1.0000   1.0000   1.0000   1.0000   1.0000
 Cp, KJ/(KG)(K)   15.3268  15.3480  15.0691  15.0872  15.1058  15.1247  15.1438  15.1633
 GAMMAs            1.3682   1.3675   1.3769   1.3762   1.3756   1.3750   1.3743   1.3736
 SON VEL,M/SEC     2580.5   2590.7   2441.9   2452.9   2463.9   2474.8   2485.6   2496.4

 TRANSPORT PROPERTIES (GASES ONLY)
   CONDUCTIVITY IN UNITS OF MILLIWATTS/(CM)(K)

 VISC,MILLIPOISE  0.23080  0.23215  0.21277  0.21419  0.21560  0.21701  0.21841  0.21980

  WITH EQUILIBRIUM REACTIONS

 Cp, KJ/(KG)(K)   15.3268  15.3480  15.0691  15.0873  15.1058  15.1247  15.1438  15.1633
 CONDUCTIVITY      5.0750   5.1108   4.6141   4.6493   4.6845   4.7198   4.7551   4.7905
 PRANDTL NUMBER    0.6970   0.6972   0.6949   0.6951   0.6952   0.6954   0.6956   0.6957

  WITH FROZEN REACTIONS

 Cp, KJ/(KG)(K)   15.3268  15.3480  15.0691  15.0872  15.1058  15.1247  15.1438  15.1633
 CONDUCTIVITY      5.0750   5.1107   4.6141   4.6493   4.6845   4.7198   4.7551   4.7905
 PRANDTL NUMBER    0.6970   0.6972   0.6949   0.6951   0.6952   0.6954   0.6956   0.6957

 MOLE FRACTIONS

 *H2              1.00000  1.00000  1.00000  1.00000  1.00000  1.00000  1.00000  1.00000

  * THERMODYNAMIC PROPERTIES FITTED TO 20000.K

 NOTE. WEIGHT FRACTION OF FUEL IN TOTAL FUELS AND OF OXIDANT IN TOTAL OXIDANTS









               THERMODYNAMIC EQUILIBRIUM PROPERTIES AT ASSIGNED

                           TEMPERATURE AND PRESSURE

 CASE =                

             REACTANT                    WT FRACTION      ENERGY      TEMP
                                          (SEE NOTE)     KJ/KG-MOL      K  
             H2                           1.0000000         0.000      0.000

 O/F=    0.00000  %FUEL=100.000000  R,EQ.RATIO= 0.000000  PHI,EQ.RATIO= 0.000000

 THERMODYNAMIC PROPERTIES

 P, BAR            22.500   22.500   22.500   22.500   22.500   22.500   22.500   22.500
 T, K             1110.00  1120.00  1130.00  1140.00  1150.00  1160.00  1170.00  1180.00
 RHO, KG/CU M    4.9146-1 4.8707-1 4.8276-1 4.7853-1 4.7437-1 4.7028-1 4.6626-1 4.6231-1
 H, KJ/KG         11916.8  12068.8  12220.9  12373.2  12525.8  12678.5  12831.5  12984.6
 U, KJ/KG         7338.67  7449.36  7560.24  7671.33  7782.62  7894.12  8005.83  8117.75
 G, KJ/KG        -67099.0 -67811.6 -68525.5 -69240.7 -69957.3 -70675.2 -71394.4 -72115.0
 S, KJ/(KG)(K)    71.1855  71.3218  71.4570  71.5912  71.7244  71.8567  71.9880  72.1183

 M, (1/n)           2.016    2.016    2.016    2.016    2.016    2.016    2.016    2.016
 (dLV/dLP)t      -0.99999 -0.99999 -0.99999 -0.99999 -0.99999 -0.99999 -0.99999 -0.99999
 (dLV/dLT)p        1.0000   1.0000   1.0000   1.0000   1.0000   1.0000   1.0000   1.0000
 Cp, KJ/(KG)(K)   15.1830  15.2029  15.2231  15.2435  15.2641  15.2848  15.3058  15.3268
 GAMMAs            1.3730   1.3723   1.3716   1.3709   1.3703   1.3696   1.3689   1.3682
 SON VEL,M/SEC     2507.1   2517.8   2528.4   2538.9   2549.4   2559.8   2570.2   2580.5

 TRANSPORT PROPERTIES (GASES ONLY)
   CONDUCTIVITY IN UNITS OF MILLIWATTS/(CM)(K)

 VISC,MILLIPOISE  0.22120  0.22258  0.22396  0.22534  0.22671  0.22808  0.22944  0.23080

  WITH EQUILIBRIUM REACTIONS

 Cp, KJ/(KG)(K)   15.1830  15.2029  15.2231  15.2435  15.2641  15.2848  15.3058  15.3268
 CONDUCTIVITY      4.8259   4.8614   4.8969   4.9324   4.9680   5.0036   5.0393   5.0750
 PRANDTL NUMBER    0.6959   0.6961   0.6962   0.6964   0.6966   0.6967   0.6969   0.6970

  WITH FROZEN REACTIONS

 Cp, KJ/(KG)(K)   15.1830  15.2029  15.2231  15.2435  15.2641  15.2848  15.3057  15.3268
 CONDUCTIVITY      4.8259   4.8614   4.8969   4.9324   4.9680   5.0036   5.0393   5.0750
 PRANDTL NUMBER    0.6959   0.6961   0.6962   0.6964   0.6966   0.6967   0.6969   0.6970

 MOLE FRACTIONS

 *H2              1.00000  1.00000  1.00000  1.00000  1.00000  1.00000  1.00000  1.00000

  * THERMODYNAMIC PROPERTIES FITTED TO 20000.K

 NOTE. WEIGHT FRACTION OF FUEL IN TOTAL FUELS AND OF OXIDANT IN TOTAL OXIDANTS









               THERMODYNAMIC EQUILIBRIUM PROPERTIES AT ASSIGNED

                           TEMPERATURE AND PRESSURE

 CASE =                

             REACTANT                    WT FRACTION      ENERGY      TEMP
                                          (SEE NOTE)     KJ/KG-MOL      K  
             H2                           1.0000000         0.000      0.000

 O/F=    0.00000  %FUEL=100.000000  R,EQ.RATIO= 0.000000  PHI,EQ.RATIO= 0.000000

 THERMODYNAMIC PROPERTIES

 P, BAR            22.500   25.000   25.000   25.000   25.000   25.000   25.000   25.000
 T, K             1190.00  1050.00  1060.00  1070.00  1080.00  1090.00  1100.00  1110.00
 RHO, KG/CU M    4.5842-1 5.7727-1 5.7183-1 5.6648-1 5.6124-1 5.5609-1 5.5103-1 5.4607-1
 H, KJ/KG         13138.0  11009.4  11160.1  11311.1  11462.2  11613.6  11765.1  11916.8
 U, KJ/KG         8229.88  6678.64  6788.17  6897.89  7007.80  7117.90  7228.19  7338.67
 G, KJ/KG        -72836.8 -62396.7 -63096.5 -63797.7 -64500.4 -65204.4 -65909.9 -66616.7
 S, KJ/(KG)(K)    72.2477  69.9106  70.0534  70.1951  70.3357  70.4752  70.6136  70.7509

 M, (1/n)           2.016    2.016    2.016    2.016    2.016    2.016    2.016    2.016
 (dLV/dLP)t      -0.99999 -1.00000 -0.99999 -0.99999 -0.99999 -0.99999 -0.99999 -0.99999
 (dLV/dLT)p        1.0000   1.0000   1.0000   1.0000   1.0000   1.0000   1.0000   1.0000
 Cp, KJ/(KG)(K)   15.3480  15.0691  15.0872  15.1058  15.1247  15.1438  15.1633  15.1830
 GAMMAs            1.3675   1.3769   1.3762   1.3756   1.3750   1.3743   1.3736   1.3730
 SON VEL,M/SEC     2590.7   2441.9   2452.9   2463.9   2474.8   2485.6   2496.4   2507.1

 TRANSPORT PROPERTIES (GASES ONLY)
   CONDUCTIVITY IN UNITS OF MILLIWATTS/(CM)(K)

 VISC,MILLIPOISE  0.23215  0.21277  0.21419  0.21560  0.21701  0.21841  0.21980  0.22120

  WITH EQUILIBRIUM REACTIONS

 Cp, KJ/(KG)(K)   15.3480  15.0691  15.0873  15.1058  15.1247  15.1438  15.1633  15.1830
 CONDUCTIVITY      5.1108   4.6141   4.6493   4.6845   4.7198   4.7551   4.7905   4.8259
 PRANDTL NUMBER    0.6972   0.6949   0.6951   0.6952   0.6954   0.6956   0.6957   0.6959

  WITH FROZEN REACTIONS

 Cp, KJ/(KG)(K)   15.3480  15.0691  15.0872  15.1058  15.1247  15.1438  15.1633  15.1830
 CONDUCTIVITY      5.1107   4.6141   4.6493   4.6845   4.7198   4.7551   4.7905   4.8259
 PRANDTL NUMBER    0.6972   0.6949   0.6951   0.6952   0.6954   0.6956   0.6957   0.6959

 MOLE FRACTIONS

 *H2              1.00000  1.00000  1.00000  1.00000  1.00000  1.00000  1.00000  1.00000

  * THERMODYNAMIC PROPERTIES FITTED TO 20000.K

 NOTE. WEIGHT FRACTION OF FUEL IN TOTAL FUELS AND OF OXIDANT IN TOTAL OXIDANTS









               THERMODYNAMIC EQUILIBRIUM PROPERTIES AT ASSIGNED

                           TEMPERATURE AND PRESSURE

 CASE =                

             REACTANT                    WT FRACTION      ENERGY      TEMP
                                          (SEE NOTE)     KJ/KG-MOL      K  
             H2                           1.0000000         0.000      0.000

 O/F=    0.00000  %FUEL=100.000000  R,EQ.RATIO= 0.000000  PHI,EQ.RATIO= 0.000000

 THERMODYNAMIC PROPERTIES

 P, BAR            25.000   25.000   25.000   25.000   25.000   25.000   25.000   25.000
 T, K             1120.00  1130.00  1140.00  1150.00  1160.00  1170.00  1180.00  1190.00
 RHO, KG/CU M    5.4119-1 5.3640-1 5.3170-1 5.2708-1 5.2253-1 5.1807-1 5.1367-1 5.0936-1
 H, KJ/KG         12068.8  12220.9  12373.2  12525.8  12678.5  12831.5  12984.6  13138.0
 U, KJ/KG         7449.36  7560.24  7671.33  7782.62  7894.12  8005.83  8117.75  8229.88
 G, KJ/KG        -67324.9 -68034.4 -68745.3 -69457.6 -70171.1 -70886.0 -71602.2 -72319.7
 S, KJ/(KG)(K)    70.8872  71.0224  71.1566  71.2899  71.4221  71.5534  71.6837  71.8132

 M, (1/n)           2.016    2.016    2.016    2.016    2.016    2.016    2.016    2.016
 (dLV/dLP)t      -0.99999 -0.99999 -0.99999 -0.99999 -0.99999 -0.99999 -0.99999 -0.99999
 (dLV/dLT)p        1.0000   1.0000   1.0000   1.0000   1.0000   1.0000   1.0000   1.0000
 Cp, KJ/(KG)(K)   15.2029  15.2231  15.2435  15.2641  15.2848  15.3058  15.3268  15.3480
 GAMMAs            1.3723   1.3716   1.3709   1.3703   1.3696   1.3689   1.3682   1.3675
 SON VEL,M/SEC     2517.8   2528.4   2538.9   2549.4   2559.8   2570.2   2580.5   2590.7

 TRANSPORT PROPERTIES (GASES ONLY)
   CONDUCTIVITY IN UNITS OF MILLIWATTS/(CM)(K)

 VISC,MILLIPOISE  0.22258  0.22396  0.22534  0.22671  0.22808  0.22944  0.23080  0.23215

  WITH EQUILIBRIUM REACTIONS

 Cp, KJ/(KG)(K)   15.2029  15.2231  15.2435  15.2641  15.2848  15.3058  15.3268  15.3480
 CONDUCTIVITY      4.8614   4.8969   4.9324   4.9680   5.0036   5.0393   5.0750   5.1108
 PRANDTL NUMBER    0.6961   0.6962   0.6964   0.6966   0.6967   0.6969   0.6970   0.6972

  WITH FROZEN REACTIONS

 Cp, KJ/(KG)(K)   15.2029  15.2231  15.2435  15.2641  15.2848  15.3057  15.3268  15.3480
 CONDUCTIVITY      4.8614   4.8969   4.9324   4.9680   5.0036   5.0393   5.0750   5.1107
 PRANDTL NUMBER    0.6961   0.6962   0.6964   0.6966   0.6967   0.6969   0.6970   0.6972

 MOLE FRACTIONS

 *H2              1.00000  1.00000  1.00000  1.00000  1.00000  1.00000  1.00000  1.00000

  * THERMODYNAMIC PROPERTIES FITTED TO 20000.K

 NOTE. WEIGHT FRACTION OF FUEL IN TOTAL FUELS AND OF OXIDANT IN TOTAL OXIDANTS









               THERMODYNAMIC EQUILIBRIUM PROPERTIES AT ASSIGNED

                           TEMPERATURE AND PRESSURE

 CASE =                

             REACTANT                    WT FRACTION      ENERGY      TEMP
                                          (SEE NOTE)     KJ/KG-MOL      K  
             H2                           1.0000000         0.000      0.000

 O/F=    0.00000  %FUEL=100.000000  R,EQ.RATIO= 0.000000  PHI,EQ.RATIO= 0.000000

 THERMODYNAMIC PROPERTIES

 P, BAR            28.000   28.000   28.000   28.000   28.000   28.000   28.000   28.000
 T, K             1050.00  1060.00  1070.00  1080.00  1090.00  1100.00  1110.00  1120.00
 RHO, KG/CU M    6.4654-1 6.4045-1 6.3446-1 6.2859-1 6.2282-1 6.1716-1 6.1160-1 6.0614-1
 H, KJ/KG         11009.4  11160.1  11311.1  11462.2  11613.6  11765.1  11916.8  12068.8
 U, KJ/KG         6678.64  6788.17  6897.89  7007.80  7117.90  7228.19  7338.67  7449.36
 G, KJ/KG        -61905.9 -62601.0 -63297.6 -63995.5 -64694.9 -65395.7 -66097.8 -66801.4
 S, KJ/(KG)(K)    69.4431  69.5860  69.7277  69.8683  70.0078  70.1462  70.2835  70.4198

 M, (1/n)           2.016    2.016    2.016    2.016    2.016    2.016    2.016    2.016
 (dLV/dLP)t      -1.00000 -0.99999 -0.99999 -0.99999 -0.99999 -0.99999 -0.99999 -0.99999
 (dLV/dLT)p        1.0000   1.0000   1.0000   1.0000   1.0000   1.0000   1.0000   1.0000
 Cp, KJ/(KG)(K)   15.0691  15.0872  15.1058  15.1247  15.1438  15.1633  15.1830  15.2029
 GAMMAs            1.3769   1.3762   1.3756   1.3750   1.3743   1.3736   1.3730   1.3723
 SON VEL,M/SEC     2441.9   2452.9   2463.9   2474.8   2485.6   2496.4   2507.1   2517.8

 TRANSPORT PROPERTIES (GASES ONLY)
   CONDUCTIVITY IN UNITS OF MILLIWATTS/(CM)(K)

 VISC,MILLIPOISE  0.21277  0.21419  0.21560  0.21701  0.21841  0.21980  0.22120  0.22258

  WITH EQUILIBRIUM REACTIONS

 Cp, KJ/(KG)(K)   15.0691  15.0873  15.1058  15.1247  15.1438  15.1633  15.1830  15.2029
 CONDUCTIVITY      4.6141   4.6493   4.6845   4.7198   4.7551   4.7905   4.8259   4.8614
 PRANDTL NUMBER    0.6949   0.6951   0.6952   0.6954   0.6956   0.6957   0.6959   0.6961

  WITH FROZEN REACTIONS

 Cp, KJ/(KG)(K)   15.0691  15.0872  15.1058  15.1247  15.1438  15.1633  15.1830  15.2029
 CONDUCTIVITY      4.6141   4.6493   4.6845   4.7198   4.7551   4.7905   4.8259   4.8614
 PRANDTL NUMBER    0.6949   0.6951   0.6952   0.6954   0.6956   0.6957   0.6959   0.6961

 MOLE FRACTIONS

 *H2              1.00000  1.00000  1.00000  1.00000  1.00000  1.00000  1.00000  1.00000

  * THERMODYNAMIC PROPERTIES FITTED TO 20000.K

 NOTE. WEIGHT FRACTION OF FUEL IN TOTAL FUELS AND OF OXIDANT IN TOTAL OXIDANTS









               THERMODYNAMIC EQUILIBRIUM PROPERTIES AT ASSIGNED

                           TEMPERATURE AND PRESSURE

 CASE =                

             REACTANT                    WT FRACTION      ENERGY      TEMP
                                          (SEE NOTE)     KJ/KG-MOL      K  
             H2                           1.0000000         0.000      0.000

 O/F=    0.00000  %FUEL=100.000000  R,EQ.RATIO= 0.000000  PHI,EQ.RATIO= 0.000000

 THERMODYNAMIC PROPERTIES

 P, BAR            28.000   28.000   28.000   28.000   28.000   28.000   28.000   31.000
 T, K             1130.00  1140.00  1150.00  1160.00  1170.00  1180.00  1190.00  1050.00
 RHO, KG/CU M    6.0077-1 5.9550-1 5.9032-1 5.8524-1 5.8023-1 5.7532-1 5.7048-1 7.1582-1
 H, KJ/KG         12220.9  12373.2  12525.8  12678.5  12831.5  12984.6  13138.0  11009.4
 U, KJ/KG         7560.24  7671.33  7782.62  7894.12  8005.83  8117.75  8229.88  6678.64
 G, KJ/KG        -67506.2 -68212.5 -68920.0 -69628.9 -70339.1 -71050.6 -71763.4 -61465.1
 S, KJ/(KG)(K)    70.5550  70.6892  70.8224  70.9547  71.0860  71.2163  71.3457  69.0233

 M, (1/n)           2.016    2.016    2.016    2.016    2.016    2.016    2.016    2.016
 (dLV/dLP)t      -0.99999 -0.99999 -0.99999 -0.99999 -0.99999 -0.99999 -0.99999 -1.00000
 (dLV/dLT)p        1.0000   1.0000   1.0000   1.0000   1.0000   1.0000   1.0000   1.0000
 Cp, KJ/(KG)(K)   15.2231  15.2435  15.2641  15.2848  15.3058  15.3268  15.3480  15.0691
 GAMMAs            1.3716   1.3709   1.3703   1.3696   1.3689   1.3682   1.3675   1.3769
 SON VEL,M/SEC     2528.4   2538.9   2549.4   2559.8   2570.2   2580.5   2590.7   2441.9

 TRANSPORT PROPERTIES (GASES ONLY)
   CONDUCTIVITY IN UNITS OF MILLIWATTS/(CM)(K)

 VISC,MILLIPOISE  0.22396  0.22534  0.22671  0.22808  0.22944  0.23080  0.23215  0.21277

  WITH EQUILIBRIUM REACTIONS

 Cp, KJ/(KG)(K)   15.2231  15.2435  15.2641  15.2848  15.3058  15.3268  15.3480  15.0691
 CONDUCTIVITY      4.8969   4.9324   4.9680   5.0036   5.0393   5.0750   5.1108   4.6141
 PRANDTL NUMBER    0.6962   0.6964   0.6966   0.6967   0.6969   0.6970   0.6972   0.6949

  WITH FROZEN REACTIONS

 Cp, KJ/(KG)(K)   15.2231  15.2435  15.2641  15.2848  15.3057  15.3268  15.3480  15.0691
 CONDUCTIVITY      4.8969   4.9324   4.9680   5.0036   5.0393   5.0750   5.1107   4.6141
 PRANDTL NUMBER    0.6962   0.6964   0.6966   0.6967   0.6969   0.6970   0.6972   0.6949

 MOLE FRACTIONS

 *H2              1.00000  1.00000  1.00000  1.00000  1.00000  1.00000  1.00000  1.00000

  * THERMODYNAMIC PROPERTIES FITTED TO 20000.K

 NOTE. WEIGHT FRACTION OF FUEL IN TOTAL FUELS AND OF OXIDANT IN TOTAL OXIDANTS









               THERMODYNAMIC EQUILIBRIUM PROPERTIES AT ASSIGNED

                           TEMPERATURE AND PRESSURE

 CASE =                

             REACTANT                    WT FRACTION      ENERGY      TEMP
                                          (SEE NOTE)     KJ/KG-MOL      K  
             H2                           1.0000000         0.000      0.000

 O/F=    0.00000  %FUEL=100.000000  R,EQ.RATIO= 0.000000  PHI,EQ.RATIO= 0.000000

 THERMODYNAMIC PROPERTIES

 P, BAR            31.000   31.000   31.000   31.000   31.000   31.000   31.000   31.000
 T, K             1060.00  1070.00  1080.00  1090.00  1100.00  1110.00  1120.00  1130.00
 RHO, KG/CU M    7.0906-1 7.0244-1 6.9593-1 6.8955-1 6.8328-1 6.7713-1 6.7108-1 6.6514-1
 H, KJ/KG         11160.1  11311.1  11462.2  11613.6  11765.1  11916.8  12068.8  12220.9
 U, KJ/KG         6788.17  6897.89  7007.80  7117.90  7228.19  7338.67  7449.36  7560.24
 G, KJ/KG        -62156.0 -62848.4 -63542.2 -64237.3 -64933.9 -65631.9 -66331.2 -67031.9
 S, KJ/(KG)(K)    69.1662  69.3079  69.4485  69.5880  69.7264  69.8637  70.0000  70.1352

 M, (1/n)           2.016    2.016    2.016    2.016    2.016    2.016    2.016    2.016
 (dLV/dLP)t      -0.99999 -0.99999 -0.99999 -0.99999 -0.99999 -0.99999 -0.99999 -0.99999
 (dLV/dLT)p        1.0000   1.0000   1.0000   1.0000   1.0000   1.0000   1.0000   1.0000
 Cp, KJ/(KG)(K)   15.0872  15.1058  15.1247  15.1438  15.1633  15.1830  15.2029  15.2231
 GAMMAs            1.3762   1.3756   1.3750   1.3743   1.3736   1.3730   1.3723   1.3716
 SON VEL,M/SEC     2452.9   2463.9   2474.8   2485.6   2496.4   2507.1   2517.8   2528.4

 TRANSPORT PROPERTIES (GASES ONLY)
   CONDUCTIVITY IN UNITS OF MILLIWATTS/(CM)(K)

 VISC,MILLIPOISE  0.21419  0.21560  0.21701  0.21841  0.21980  0.22120  0.22258  0.22396

  WITH EQUILIBRIUM REACTIONS

 Cp, KJ/(KG)(K)   15.0873  15.1058  15.1247  15.1438  15.1633  15.1830  15.2029  15.2231
 CONDUCTIVITY      4.6493   4.6845   4.7198   4.7551   4.7905   4.8259   4.8614   4.8969
 PRANDTL NUMBER    0.6951   0.6952   0.6954   0.6956   0.6957   0.6959   0.6961   0.6962

  WITH FROZEN REACTIONS

 Cp, KJ/(KG)(K)   15.0872  15.1058  15.1247  15.1438  15.1633  15.1830  15.2029  15.2231
 CONDUCTIVITY      4.6493   4.6845   4.7198   4.7551   4.7905   4.8259   4.8614   4.8969
 PRANDTL NUMBER    0.6951   0.6952   0.6954   0.6956   0.6957   0.6959   0.6961   0.6962

 MOLE FRACTIONS

 *H2              1.00000  1.00000  1.00000  1.00000  1.00000  1.00000  1.00000  1.00000

  * THERMODYNAMIC PROPERTIES FITTED TO 20000.K

 NOTE. WEIGHT FRACTION OF FUEL IN TOTAL FUELS AND OF OXIDANT IN TOTAL OXIDANTS









               THERMODYNAMIC EQUILIBRIUM PROPERTIES AT ASSIGNED

                           TEMPERATURE AND PRESSURE

 CASE =                

             REACTANT                    WT FRACTION      ENERGY      TEMP
                                          (SEE NOTE)     KJ/KG-MOL      K  
             H2                           1.0000000         0.000      0.000

 O/F=    0.00000  %FUEL=100.000000  R,EQ.RATIO= 0.000000  PHI,EQ.RATIO= 0.000000

 THERMODYNAMIC PROPERTIES

 P, BAR            31.000   31.000   31.000   31.000   31.000   31.000   35.000   35.000
 T, K             1140.00  1150.00  1160.00  1170.00  1180.00  1190.00  1050.00  1060.00
 RHO, KG/CU M    6.5931-1 6.5357-1 6.4794-1 6.4240-1 6.3696-1 6.3160-1 8.0818-1 8.0056-1
 H, KJ/KG         12373.2  12525.8  12678.5  12831.5  12984.6  13138.0  11009.4  11160.1
 U, KJ/KG         7671.33  7782.62  7894.12  8005.83  8117.75  8229.88  6678.64  6788.17
 G, KJ/KG        -67733.9 -68437.2 -69141.9 -69847.9 -70555.2 -71263.9 -60939.6 -61625.4
 S, KJ/(KG)(K)    70.2694  70.4026  70.5349  70.6662  70.7965  70.9259  68.5228  68.6656

 M, (1/n)           2.016    2.016    2.016    2.016    2.016    2.016    2.016    2.016
 (dLV/dLP)t      -0.99999 -0.99999 -0.99999 -0.99999 -0.99999 -0.99999 -1.00000 -0.99999
 (dLV/dLT)p        1.0000   1.0000   1.0000   1.0000   1.0000   1.0000   1.0000   1.0000
 Cp, KJ/(KG)(K)   15.2435  15.2641  15.2848  15.3058  15.3268  15.3480  15.0691  15.0872
 GAMMAs            1.3709   1.3703   1.3696   1.3689   1.3682   1.3675   1.3769   1.3762
 SON VEL,M/SEC     2538.9   2549.4   2559.8   2570.2   2580.5   2590.7   2441.9   2452.9

 TRANSPORT PROPERTIES (GASES ONLY)
   CONDUCTIVITY IN UNITS OF MILLIWATTS/(CM)(K)

 VISC,MILLIPOISE  0.22534  0.22671  0.22808  0.22944  0.23080  0.23215  0.21277  0.21419

  WITH EQUILIBRIUM REACTIONS

 Cp, KJ/(KG)(K)   15.2435  15.2641  15.2848  15.3058  15.3268  15.3480  15.0691  15.0873
 CONDUCTIVITY      4.9324   4.9680   5.0036   5.0393   5.0750   5.1108   4.6141   4.6493
 PRANDTL NUMBER    0.6964   0.6966   0.6967   0.6969   0.6970   0.6972   0.6949   0.6951

  WITH FROZEN REACTIONS

 Cp, KJ/(KG)(K)   15.2435  15.2641  15.2848  15.3057  15.3268  15.3480  15.0691  15.0872
 CONDUCTIVITY      4.9324   4.9680   5.0036   5.0393   5.0750   5.1107   4.6141   4.6493
 PRANDTL NUMBER    0.6964   0.6966   0.6967   0.6969   0.6970   0.6972   0.6949   0.6951

 MOLE FRACTIONS

 *H2              1.00000  1.00000  1.00000  1.00000  1.00000  1.00000  1.00000  1.00000

  * THERMODYNAMIC PROPERTIES FITTED TO 20000.K

 NOTE. WEIGHT FRACTION OF FUEL IN TOTAL FUELS AND OF OXIDANT IN TOTAL OXIDANTS









               THERMODYNAMIC EQUILIBRIUM PROPERTIES AT ASSIGNED

                           TEMPERATURE AND PRESSURE

 CASE =                

             REACTANT                    WT FRACTION      ENERGY      TEMP
                                          (SEE NOTE)     KJ/KG-MOL      K  
             H2                           1.0000000         0.000      0.000

 O/F=    0.00000  %FUEL=100.000000  R,EQ.RATIO= 0.000000  PHI,EQ.RATIO= 0.000000

 THERMODYNAMIC PROPERTIES

 P, BAR            35.000   35.000   35.000   35.000   35.000   35.000   35.000   35.000
 T, K             1070.00  1080.00  1090.00  1100.00  1110.00  1120.00  1130.00  1140.00
 RHO, KG/CU M    7.9308-1 7.8573-1 7.7852-1 7.7145-1 7.6450-1 7.5767-1 7.5097-1 7.4438-1
 H, KJ/KG         11311.1  11462.2  11613.6  11765.1  11916.8  12068.8  12220.9  12373.2
 U, KJ/KG         6897.89  7007.80  7117.90  7228.19  7338.67  7449.36  7560.24  7671.33
 G, KJ/KG        -62312.8 -63001.6 -63691.7 -64383.3 -65076.2 -65770.6 -66466.2 -67163.2
 S, KJ/(KG)(K)    68.8074  68.9480  69.0874  69.2258  69.3631  69.4994  69.6346  69.7689

 M, (1/n)           2.016    2.016    2.016    2.016    2.016    2.016    2.016    2.016
 (dLV/dLP)t      -0.99999 -0.99999 -0.99999 -0.99999 -0.99999 -0.99999 -0.99999 -0.99999
 (dLV/dLT)p        1.0000   1.0000   1.0000   1.0000   1.0000   1.0000   1.0000   1.0000
 Cp, KJ/(KG)(K)   15.1058  15.1247  15.1438  15.1633  15.1830  15.2029  15.2231  15.2435
 GAMMAs            1.3756   1.3750   1.3743   1.3736   1.3730   1.3723   1.3716   1.3709
 SON VEL,M/SEC     2463.9   2474.8   2485.6   2496.4   2507.1   2517.8   2528.4   2538.9

 TRANSPORT PROPERTIES (GASES ONLY)
   CONDUCTIVITY IN UNITS OF MILLIWATTS/(CM)(K)

 VISC,MILLIPOISE  0.21560  0.21701  0.21841  0.21980  0.22120  0.22258  0.22396  0.22534

  WITH EQUILIBRIUM REACTIONS

 Cp, KJ/(KG)(K)   15.1058  15.1247  15.1438  15.1633  15.1830  15.2029  15.2231  15.2435
 CONDUCTIVITY      4.6845   4.7198   4.7551   4.7905   4.8259   4.8614   4.8969   4.9324
 PRANDTL NUMBER    0.6952   0.6954   0.6956   0.6957   0.6959   0.6961   0.6962   0.6964

  WITH FROZEN REACTIONS

 Cp, KJ/(KG)(K)   15.1058  15.1247  15.1438  15.1633  15.1830  15.2029  15.2231  15.2435
 CONDUCTIVITY      4.6845   4.7198   4.7551   4.7905   4.8259   4.8614   4.8969   4.9324
 PRANDTL NUMBER    0.6952   0.6954   0.6956   0.6957   0.6959   0.6961   0.6962   0.6964

 MOLE FRACTIONS

 *H2              1.00000  1.00000  1.00000  1.00000  1.00000  1.00000  1.00000  1.00000

  * THERMODYNAMIC PROPERTIES FITTED TO 20000.K

 NOTE. WEIGHT FRACTION OF FUEL IN TOTAL FUELS AND OF OXIDANT IN TOTAL OXIDANTS









               THERMODYNAMIC EQUILIBRIUM PROPERTIES AT ASSIGNED

                           TEMPERATURE AND PRESSURE

 CASE =                

             REACTANT                    WT FRACTION      ENERGY      TEMP
                                          (SEE NOTE)     KJ/KG-MOL      K  
             H2                           1.0000000         0.000      0.000

 O/F=    0.00000  %FUEL=100.000000  R,EQ.RATIO= 0.000000  PHI,EQ.RATIO= 0.000000

 THERMODYNAMIC PROPERTIES

 P, BAR            35.000   35.000   35.000   35.000   35.000   39.000   39.000   39.000
 T, K             1150.00  1160.00  1170.00  1180.00  1190.00  1050.00  1060.00  1070.00
 RHO, KG/CU M    7.3791-1 7.3154-1 7.2529-1 7.1914-1 7.1310-1 9.0054-1 8.9205-1 8.8371-1
 H, KJ/KG         12525.8  12678.5  12831.5  12984.6  13138.0  11009.4  11160.1  11311.1
 U, KJ/KG         7782.62  7894.12  8005.83  8117.75  8229.88  6678.64  6788.17  6897.89
 G, KJ/KG        -67861.6 -68561.3 -69262.3 -69964.6 -70668.2 -60470.9 -61152.3 -61835.2
 S, KJ/(KG)(K)    69.9021  70.0343  70.1656  70.2960  70.4254  68.0764  68.2193  68.3610

 M, (1/n)           2.016    2.016    2.016    2.016    2.016    2.016    2.016    2.016
 (dLV/dLP)t      -0.99999 -0.99999 -0.99999 -0.99999 -0.99999 -1.00000 -0.99999 -0.99999
 (dLV/dLT)p        1.0000   1.0000   1.0000   1.0000   1.0000   1.0000   1.0000   1.0000
 Cp, KJ/(KG)(K)   15.2641  15.2848  15.3058  15.3268  15.3480  15.0691  15.0872  15.1058
 GAMMAs            1.3703   1.3696   1.3689   1.3682   1.3675   1.3769   1.3762   1.3756
 SON VEL,M/SEC     2549.4   2559.8   2570.2   2580.5   2590.7   2441.9   2452.9   2463.9

 TRANSPORT PROPERTIES (GASES ONLY)
   CONDUCTIVITY IN UNITS OF MILLIWATTS/(CM)(K)

 VISC,MILLIPOISE  0.22671  0.22808  0.22944  0.23080  0.23215  0.21277  0.21419  0.21560

  WITH EQUILIBRIUM REACTIONS

 Cp, KJ/(KG)(K)   15.2641  15.2848  15.3058  15.3268  15.3480  15.0691  15.0873  15.1058
 CONDUCTIVITY      4.9680   5.0036   5.0393   5.0750   5.1107   4.6141   4.6493   4.6845
 PRANDTL NUMBER    0.6966   0.6967   0.6969   0.6970   0.6972   0.6949   0.6951   0.6952

  WITH FROZEN REACTIONS

 Cp, KJ/(KG)(K)   15.2641  15.2848  15.3057  15.3268  15.3480  15.0691  15.0872  15.1058
 CONDUCTIVITY      4.9680   5.0036   5.0393   5.0750   5.1107   4.6141   4.6493   4.6845
 PRANDTL NUMBER    0.6966   0.6967   0.6969   0.6970   0.6972   0.6949   0.6951   0.6952

 MOLE FRACTIONS

 *H2              1.00000  1.00000  1.00000  1.00000  1.00000  1.00000  1.00000  1.00000

  * THERMODYNAMIC PROPERTIES FITTED TO 20000.K

 NOTE. WEIGHT FRACTION OF FUEL IN TOTAL FUELS AND OF OXIDANT IN TOTAL OXIDANTS









               THERMODYNAMIC EQUILIBRIUM PROPERTIES AT ASSIGNED

                           TEMPERATURE AND PRESSURE

 CASE =                

             REACTANT                    WT FRACTION      ENERGY      TEMP
                                          (SEE NOTE)     KJ/KG-MOL      K  
             H2                           1.0000000         0.000      0.000

 O/F=    0.00000  %FUEL=100.000000  R,EQ.RATIO= 0.000000  PHI,EQ.RATIO= 0.000000

 THERMODYNAMIC PROPERTIES

 P, BAR            39.000   39.000   39.000   39.000   39.000   39.000   39.000   39.000
 T, K             1080.00  1090.00  1100.00  1110.00  1120.00  1130.00  1140.00  1150.00
 RHO, KG/CU M    8.7553-1 8.6750-1 8.5961-1 8.5187-1 8.4426-1 8.3679-1 8.2945-1 8.2224-1
 H, KJ/KG         11462.2  11613.6  11765.1  11916.8  12068.8  12220.9  12373.2  12525.8
 U, KJ/KG         7007.80  7117.90  7228.19  7338.67  7449.36  7560.24  7671.33  7782.62
 G, KJ/KG        -62519.5 -63205.2 -63892.3 -64580.8 -65270.7 -65961.9 -66654.4 -67348.3
 S, KJ/(KG)(K)    68.5016  68.6411  68.7795  68.9168  69.0531  69.1883  69.3225  69.4557

 M, (1/n)           2.016    2.016    2.016    2.016    2.016    2.016    2.016    2.016
 (dLV/dLP)t      -0.99999 -0.99999 -0.99999 -0.99999 -0.99999 -0.99999 -0.99999 -0.99999
 (dLV/dLT)p        1.0000   1.0000   1.0000   1.0000   1.0000   1.0000   1.0000   1.0000
 Cp, KJ/(KG)(K)   15.1247  15.1438  15.1633  15.1830  15.2029  15.2231  15.2435  15.2641
 GAMMAs            1.3750   1.3743   1.3736   1.3730   1.3723   1.3716   1.3710   1.3703
 SON VEL,M/SEC     2474.8   2485.6   2496.4   2507.1   2517.8   2528.4   2538.9   2549.4

 TRANSPORT PROPERTIES (GASES ONLY)
   CONDUCTIVITY IN UNITS OF MILLIWATTS/(CM)(K)

 VISC,MILLIPOISE  0.21701  0.21841  0.21980  0.22120  0.22258  0.22396  0.22534  0.22671

  WITH EQUILIBRIUM REACTIONS

 Cp, KJ/(KG)(K)   15.1247  15.1438  15.1633  15.1830  15.2029  15.2231  15.2435  15.2641
 CONDUCTIVITY      4.7198   4.7551   4.7905   4.8259   4.8614   4.8969   4.9324   4.9680
 PRANDTL NUMBER    0.6954   0.6956   0.6957   0.6959   0.6961   0.6962   0.6964   0.6966

  WITH FROZEN REACTIONS

 Cp, KJ/(KG)(K)   15.1247  15.1438  15.1633  15.1830  15.2029  15.2231  15.2435  15.2641
 CONDUCTIVITY      4.7198   4.7551   4.7905   4.8259   4.8614   4.8969   4.9324   4.9680
 PRANDTL NUMBER    0.6954   0.6956   0.6957   0.6959   0.6961   0.6962   0.6964   0.6966

 MOLE FRACTIONS

 *H2              1.00000  1.00000  1.00000  1.00000  1.00000  1.00000  1.00000  1.00000

  * THERMODYNAMIC PROPERTIES FITTED TO 20000.K

 NOTE. WEIGHT FRACTION OF FUEL IN TOTAL FUELS AND OF OXIDANT IN TOTAL OXIDANTS









               THERMODYNAMIC EQUILIBRIUM PROPERTIES AT ASSIGNED

                           TEMPERATURE AND PRESSURE

 CASE =                

             REACTANT                    WT FRACTION      ENERGY      TEMP
                                          (SEE NOTE)     KJ/KG-MOL      K  
             H2                           1.0000000         0.000      0.000

 O/F=    0.00000  %FUEL=100.000000  R,EQ.RATIO= 0.000000  PHI,EQ.RATIO= 0.000000

 THERMODYNAMIC PROPERTIES

 P, BAR            39.000   39.000   39.000   39.000   44.000   44.000   44.000   44.000
 T, K             1160.00  1170.00  1180.00  1190.00  1050.00  1060.00  1070.00  1080.00
 RHO, KG/CU M    8.1515-1 8.0818-1 8.0133-1 7.9460-1 1.0160 0 1.0064 0 9.9701-1 9.8778-1
 H, KJ/KG         12678.5  12831.5  12984.6  13138.0  11009.4  11160.1  11311.1  11462.2
 U, KJ/KG         7894.12  8005.83  8117.75  8229.88  6678.64  6788.17  6897.89  7007.80
 G, KJ/KG        -68043.5 -68740.1 -69437.9 -70137.1 -59948.5 -60625.0 -61302.9 -61982.2
 S, KJ/(KG)(K)    69.5880  69.7193  69.8496  69.9791  67.5789  67.7218  67.8635  68.0041

 M, (1/n)           2.016    2.016    2.016    2.016    2.016    2.016    2.016    2.016
 (dLV/dLP)t      -0.99999 -0.99999 -0.99999 -0.99999 -1.00000 -0.99999 -0.99999 -0.99999
 (dLV/dLT)p        1.0000   1.0000   1.0000   1.0000   1.0000   1.0000   1.0000   1.0000
 Cp, KJ/(KG)(K)   15.2848  15.3058  15.3268  15.3480  15.0691  15.0872  15.1058  15.1247
 GAMMAs            1.3696   1.3689   1.3682   1.3675   1.3769   1.3762   1.3756   1.3750
 SON VEL,M/SEC     2559.8   2570.2   2580.5   2590.7   2441.9   2452.9   2463.9   2474.8

 TRANSPORT PROPERTIES (GASES ONLY)
   CONDUCTIVITY IN UNITS OF MILLIWATTS/(CM)(K)

 VISC,MILLIPOISE  0.22808  0.22944  0.23080  0.23215  0.21277  0.21419  0.21560  0.21701

  WITH EQUILIBRIUM REACTIONS

 Cp, KJ/(KG)(K)   15.2848  15.3058  15.3268  15.3480  15.0691  15.0873  15.1058  15.1247
 CONDUCTIVITY      5.0036   5.0393   5.0750   5.1107   4.6141   4.6493   4.6845   4.7198
 PRANDTL NUMBER    0.6967   0.6969   0.6970   0.6972   0.6949   0.6951   0.6952   0.6954

  WITH FROZEN REACTIONS

 Cp, KJ/(KG)(K)   15.2848  15.3057  15.3268  15.3480  15.0691  15.0872  15.1058  15.1247
 CONDUCTIVITY      5.0036   5.0393   5.0750   5.1107   4.6141   4.6493   4.6845   4.7198
 PRANDTL NUMBER    0.6967   0.6969   0.6970   0.6972   0.6949   0.6951   0.6952   0.6954

 MOLE FRACTIONS

 *H2              1.00000  1.00000  1.00000  1.00000  1.00000  1.00000  1.00000  1.00000

  * THERMODYNAMIC PROPERTIES FITTED TO 20000.K

 NOTE. WEIGHT FRACTION OF FUEL IN TOTAL FUELS AND OF OXIDANT IN TOTAL OXIDANTS









               THERMODYNAMIC EQUILIBRIUM PROPERTIES AT ASSIGNED

                           TEMPERATURE AND PRESSURE

 CASE =                

             REACTANT                    WT FRACTION      ENERGY      TEMP
                                          (SEE NOTE)     KJ/KG-MOL      K  
             H2                           1.0000000         0.000      0.000

 O/F=    0.00000  %FUEL=100.000000  R,EQ.RATIO= 0.000000  PHI,EQ.RATIO= 0.000000

 THERMODYNAMIC PROPERTIES

 P, BAR            44.000   44.000   44.000   44.000   44.000   44.000   44.000   44.000
 T, K             1090.00  1100.00  1110.00  1120.00  1130.00  1140.00  1150.00  1160.00
 RHO, KG/CU M    9.7872-1 9.6982-1 9.6108-1 9.5250-1 9.4407-1 9.3579-1 9.2765-1 9.1966-1
 H, KJ/KG         11613.6  11765.1  11916.8  12068.8  12220.9  12373.2  12525.8  12678.5
 U, KJ/KG         7117.90  7228.19  7338.67  7449.36  7560.24  7671.33  7782.62  7894.12
 G, KJ/KG        -62662.9 -63345.1 -64028.6 -64713.4 -65399.7 -66087.2 -66776.2 -67466.4
 S, KJ/(KG)(K)    68.1436  68.2820  68.4193  68.5555  68.6908  68.8250  68.9582  69.0905

 M, (1/n)           2.016    2.016    2.016    2.016    2.016    2.016    2.016    2.016
 (dLV/dLP)t      -0.99999 -0.99999 -0.99999 -0.99999 -0.99999 -0.99999 -0.99999 -0.99999
 (dLV/dLT)p        1.0000   1.0000   1.0000   1.0000   1.0000   1.0000   1.0000   1.0000
 Cp, KJ/(KG)(K)   15.1438  15.1633  15.1830  15.2029  15.2231  15.2435  15.2641  15.2848
 GAMMAs            1.3743   1.3736   1.3730   1.3723   1.3716   1.3710   1.3703   1.3696
 SON VEL,M/SEC     2485.6   2496.4   2507.1   2517.8   2528.4   2538.9   2549.4   2559.8

 TRANSPORT PROPERTIES (GASES ONLY)
   CONDUCTIVITY IN UNITS OF MILLIWATTS/(CM)(K)

 VISC,MILLIPOISE  0.21841  0.21980  0.22120  0.22258  0.22396  0.22534  0.22671  0.22808

  WITH EQUILIBRIUM REACTIONS

 Cp, KJ/(KG)(K)   15.1438  15.1633  15.1830  15.2029  15.2231  15.2435  15.2641  15.2848
 CONDUCTIVITY      4.7551   4.7905   4.8259   4.8614   4.8969   4.9324   4.9680   5.0036
 PRANDTL NUMBER    0.6956   0.6957   0.6959   0.6961   0.6962   0.6964   0.6966   0.6967

  WITH FROZEN REACTIONS

 Cp, KJ/(KG)(K)   15.1438  15.1633  15.1830  15.2029  15.2231  15.2435  15.2641  15.2848
 CONDUCTIVITY      4.7551   4.7905   4.8259   4.8614   4.8969   4.9324   4.9680   5.0036
 PRANDTL NUMBER    0.6956   0.6957   0.6959   0.6961   0.6962   0.6964   0.6966   0.6967

 MOLE FRACTIONS

 *H2              1.00000  1.00000  1.00000  1.00000  1.00000  1.00000  1.00000  1.00000

  * THERMODYNAMIC PROPERTIES FITTED TO 20000.K

 NOTE. WEIGHT FRACTION OF FUEL IN TOTAL FUELS AND OF OXIDANT IN TOTAL OXIDANTS









               THERMODYNAMIC EQUILIBRIUM PROPERTIES AT ASSIGNED

                           TEMPERATURE AND PRESSURE

 CASE =                

             REACTANT                    WT FRACTION      ENERGY      TEMP
                                          (SEE NOTE)     KJ/KG-MOL      K  
             H2                           1.0000000         0.000      0.000

 O/F=    0.00000  %FUEL=100.000000  R,EQ.RATIO= 0.000000  PHI,EQ.RATIO= 0.000000

 THERMODYNAMIC PROPERTIES

 P, BAR            44.000   44.000   44.000   49.000   49.000   49.000   49.000   49.000
 T, K             1170.00  1180.00  1190.00  1050.00  1060.00  1070.00  1080.00  1090.00
 RHO, KG/CU M    9.1179-1 9.0407-1 8.9647-1 1.1315 0 1.1208 0 1.1103 0 1.1000 0 1.0899 0
 H, KJ/KG         12831.5  12984.6  13138.0  11009.4  11160.1  11311.1  11462.2  11613.6
 U, KJ/KG         8005.83  8117.75  8229.88  6678.64  6788.17  6897.89  7007.80  7117.90
 G, KJ/KG        -68158.0 -68850.8 -69545.0 -59482.4 -60154.4 -60827.9 -61502.8 -62179.1
 S, KJ/(KG)(K)    69.2218  69.3521  69.4815  67.1350  67.2779  67.4196  67.5602  67.6997

 M, (1/n)           2.016    2.016    2.016    2.016    2.016    2.016    2.016    2.016
 (dLV/dLP)t      -0.99999 -0.99999 -0.99999 -1.00000 -0.99999 -0.99999 -0.99999 -0.99999
 (dLV/dLT)p        1.0000   1.0000   1.0000   1.0000   1.0000   1.0000   1.0000   1.0000
 Cp, KJ/(KG)(K)   15.3058  15.3268  15.3480  15.0691  15.0872  15.1058  15.1247  15.1438
 GAMMAs            1.3689   1.3682   1.3675   1.3769   1.3762   1.3756   1.3750   1.3743
 SON VEL,M/SEC     2570.2   2580.5   2590.7   2441.9   2452.9   2463.9   2474.8   2485.6

 TRANSPORT PROPERTIES (GASES ONLY)
   CONDUCTIVITY IN UNITS OF MILLIWATTS/(CM)(K)

 VISC,MILLIPOISE  0.22944  0.23080  0.23215  0.21277  0.21419  0.21560  0.21701  0.21841

  WITH EQUILIBRIUM REACTIONS

 Cp, KJ/(KG)(K)   15.3058  15.3268  15.3480  15.0691  15.0873  15.1058  15.1247  15.1438
 CONDUCTIVITY      5.0393   5.0750   5.1107   4.6141   4.6493   4.6845   4.7198   4.7551
 PRANDTL NUMBER    0.6969   0.6970   0.6972   0.6949   0.6951   0.6952   0.6954   0.6956

  WITH FROZEN REACTIONS

 Cp, KJ/(KG)(K)   15.3057  15.3268  15.3480  15.0691  15.0872  15.1058  15.1247  15.1438
 CONDUCTIVITY      5.0393   5.0750   5.1107   4.6141   4.6493   4.6845   4.7198   4.7551
 PRANDTL NUMBER    0.6969   0.6970   0.6972   0.6949   0.6951   0.6952   0.6954   0.6956

 MOLE FRACTIONS

 *H2              1.00000  1.00000  1.00000  1.00000  1.00000  1.00000  1.00000  1.00000

  * THERMODYNAMIC PROPERTIES FITTED TO 20000.K

 NOTE. WEIGHT FRACTION OF FUEL IN TOTAL FUELS AND OF OXIDANT IN TOTAL OXIDANTS









               THERMODYNAMIC EQUILIBRIUM PROPERTIES AT ASSIGNED

                           TEMPERATURE AND PRESSURE

 CASE =                

             REACTANT                    WT FRACTION      ENERGY      TEMP
                                          (SEE NOTE)     KJ/KG-MOL      K  
             H2                           1.0000000         0.000      0.000

 O/F=    0.00000  %FUEL=100.000000  R,EQ.RATIO= 0.000000  PHI,EQ.RATIO= 0.000000

 THERMODYNAMIC PROPERTIES

 P, BAR            49.000   49.000   49.000   49.000   49.000   49.000   49.000   49.000
 T, K             1100.00  1110.00  1120.00  1130.00  1140.00  1150.00  1160.00  1170.00
 RHO, KG/CU M    1.0800 0 1.0703 0 1.0607 0 1.0514 0 1.0421 0 1.0331 0 1.0242 0 1.0154 0
 H, KJ/KG         11765.1  11916.8  12068.8  12220.9  12373.2  12525.8  12678.5  12831.5
 U, KJ/KG         7228.19  7338.67  7449.36  7560.24  7671.33  7782.62  7894.12  8005.83
 G, KJ/KG        -62856.7 -63535.8 -64216.2 -64898.0 -65581.2 -66265.7 -66951.5 -67638.6
 S, KJ/(KG)(K)    67.8381  67.9754  68.1116  68.2469  68.3811  68.5143  68.6465  68.7778

 M, (1/n)           2.016    2.016    2.016    2.016    2.016    2.016    2.016    2.016
 (dLV/dLP)t      -0.99999 -0.99999 -0.99999 -0.99999 -0.99999 -0.99999 -0.99999 -0.99999
 (dLV/dLT)p        1.0000   1.0000   1.0000   1.0000   1.0000   1.0000   1.0000   1.0000
 Cp, KJ/(KG)(K)   15.1633  15.1830  15.2029  15.2231  15.2435  15.2641  15.2848  15.3057
 GAMMAs            1.3736   1.3730   1.3723   1.3716   1.3710   1.3703   1.3696   1.3689
 SON VEL,M/SEC     2496.4   2507.1   2517.8   2528.4   2538.9   2549.4   2559.8   2570.2

 TRANSPORT PROPERTIES (GASES ONLY)
   CONDUCTIVITY IN UNITS OF MILLIWATTS/(CM)(K)

 VISC,MILLIPOISE  0.21980  0.22120  0.22258  0.22396  0.22534  0.22671  0.22808  0.22944

  WITH EQUILIBRIUM REACTIONS

 Cp, KJ/(KG)(K)   15.1633  15.1830  15.2029  15.2231  15.2435  15.2641  15.2848  15.3057
 CONDUCTIVITY      4.7905   4.8259   4.8614   4.8969   4.9324   4.9680   5.0036   5.0393
 PRANDTL NUMBER    0.6957   0.6959   0.6961   0.6962   0.6964   0.6966   0.6967   0.6969

  WITH FROZEN REACTIONS

 Cp, KJ/(KG)(K)   15.1633  15.1830  15.2029  15.2231  15.2435  15.2641  15.2848  15.3057
 CONDUCTIVITY      4.7905   4.8259   4.8614   4.8969   4.9324   4.9680   5.0036   5.0393
 PRANDTL NUMBER    0.6957   0.6959   0.6961   0.6962   0.6964   0.6966   0.6967   0.6969

 MOLE FRACTIONS

 *H2              1.00000  1.00000  1.00000  1.00000  1.00000  1.00000  1.00000  1.00000

  * THERMODYNAMIC PROPERTIES FITTED TO 20000.K

 NOTE. WEIGHT FRACTION OF FUEL IN TOTAL FUELS AND OF OXIDANT IN TOTAL OXIDANTS









               THERMODYNAMIC EQUILIBRIUM PROPERTIES AT ASSIGNED

                           TEMPERATURE AND PRESSURE

 CASE =                

             REACTANT                    WT FRACTION      ENERGY      TEMP
                                          (SEE NOTE)     KJ/KG-MOL      K  
             H2                           1.0000000         0.000      0.000

 O/F=    0.00000  %FUEL=100.000000  R,EQ.RATIO= 0.000000  PHI,EQ.RATIO= 0.000000

 THERMODYNAMIC PROPERTIES

 P, BAR            49.000   49.000   54.000   54.000   54.000   54.000   54.000   54.000
 T, K             1180.00  1190.00  1050.00  1060.00  1070.00  1080.00  1090.00  1100.00
 RHO, KG/CU M    1.0068 0 9.9834-1 1.2469 0 1.2351 0 1.2236 0 1.2123 0 1.2012 0 1.1902 0
 H, KJ/KG         12984.6  13138.0  11009.4  11160.1  11311.1  11462.2  11613.6  11765.1
 U, KJ/KG         8117.75  8229.88  6678.64  6788.17  6897.89  7007.80  7117.90  7228.19
 G, KJ/KG        -68327.0 -69016.7 -59061.6 -59729.6 -60399.1 -61069.9 -61742.2 -62415.9
 S, KJ/(KG)(K)    68.9082  69.0376  66.7342  66.8771  67.0188  67.1594  67.2989  67.4373

 M, (1/n)           2.016    2.016    2.016    2.016    2.016    2.016    2.016    2.016
 (dLV/dLP)t      -0.99999 -0.99999 -1.00000 -0.99999 -0.99999 -0.99999 -0.99999 -0.99999
 (dLV/dLT)p        1.0000   1.0000   1.0000   1.0000   1.0000   1.0000   1.0000   1.0000
 Cp, KJ/(KG)(K)   15.3268  15.3480  15.0691  15.0872  15.1058  15.1247  15.1438  15.1633
 GAMMAs            1.3682   1.3675   1.3769   1.3762   1.3756   1.3750   1.3743   1.3736
 SON VEL,M/SEC     2580.5   2590.7   2441.9   2452.9   2463.9   2474.8   2485.6   2496.4

 TRANSPORT PROPERTIES (GASES ONLY)
   CONDUCTIVITY IN UNITS OF MILLIWATTS/(CM)(K)

 VISC,MILLIPOISE  0.23080  0.23215  0.21277  0.21419  0.21560  0.21701  0.21841  0.21980

  WITH EQUILIBRIUM REACTIONS

 Cp, KJ/(KG)(K)   15.3268  15.3480  15.0691  15.0873  15.1058  15.1247  15.1438  15.1633
 CONDUCTIVITY      5.0750   5.1107   4.6141   4.6493   4.6845   4.7198   4.7551   4.7905
 PRANDTL NUMBER    0.6970   0.6972   0.6949   0.6951   0.6952   0.6954   0.6956   0.6957

  WITH FROZEN REACTIONS

 Cp, KJ/(KG)(K)   15.3268  15.3480  15.0691  15.0872  15.1058  15.1247  15.1438  15.1633
 CONDUCTIVITY      5.0750   5.1107   4.6141   4.6493   4.6845   4.7198   4.7551   4.7905
 PRANDTL NUMBER    0.6970   0.6972   0.6949   0.6951   0.6952   0.6954   0.6956   0.6957

 MOLE FRACTIONS

 *H2              1.00000  1.00000  1.00000  1.00000  1.00000  1.00000  1.00000  1.00000

  * THERMODYNAMIC PROPERTIES FITTED TO 20000.K

 NOTE. WEIGHT FRACTION OF FUEL IN TOTAL FUELS AND OF OXIDANT IN TOTAL OXIDANTS









               THERMODYNAMIC EQUILIBRIUM PROPERTIES AT ASSIGNED

                           TEMPERATURE AND PRESSURE

 CASE =                

             REACTANT                    WT FRACTION      ENERGY      TEMP
                                          (SEE NOTE)     KJ/KG-MOL      K  
             H2                           1.0000000         0.000      0.000

 O/F=    0.00000  %FUEL=100.000000  R,EQ.RATIO= 0.000000  PHI,EQ.RATIO= 0.000000

 THERMODYNAMIC PROPERTIES

 P, BAR            54.000   54.000   54.000   54.000   54.000   54.000   54.000   54.000
 T, K             1110.00  1120.00  1130.00  1140.00  1150.00  1160.00  1170.00  1180.00
 RHO, KG/CU M    1.1795 0 1.1690 0 1.1586 0 1.1485 0 1.1385 0 1.1287 0 1.1190 0 1.1095 0
 H, KJ/KG         11916.8  12068.8  12220.9  12373.2  12525.8  12678.5  12831.5  12984.6
 U, KJ/KG         7338.67  7449.36  7560.24  7671.33  7782.62  7894.12  8005.83  8117.75
 G, KJ/KG        -63091.0 -63767.4 -64445.2 -65124.3 -65804.8 -66486.6 -67169.7 -67854.1
 S, KJ/(KG)(K)    67.5746  67.7109  67.8461  67.9803  68.1135  68.2458  68.3771  68.5074

 M, (1/n)           2.016    2.016    2.016    2.016    2.016    2.016    2.016    2.016
 (dLV/dLP)t      -0.99999 -0.99999 -0.99999 -0.99999 -0.99999 -0.99999 -0.99999 -0.99999
 (dLV/dLT)p        1.0000   1.0000   1.0000   1.0000   1.0000   1.0000   1.0000   1.0000
 Cp, KJ/(KG)(K)   15.1830  15.2029  15.2231  15.2435  15.2641  15.2848  15.3057  15.3268
 GAMMAs            1.3730   1.3723   1.3716   1.3710   1.3703   1.3696   1.3689   1.3682
 SON VEL,M/SEC     2507.1   2517.8   2528.4   2538.9   2549.4   2559.8   2570.2   2580.5

 TRANSPORT PROPERTIES (GASES ONLY)
   CONDUCTIVITY IN UNITS OF MILLIWATTS/(CM)(K)

 VISC,MILLIPOISE  0.22120  0.22258  0.22396  0.22534  0.22671  0.22808  0.22944  0.23080

  WITH EQUILIBRIUM REACTIONS

 Cp, KJ/(KG)(K)   15.1830  15.2029  15.2231  15.2435  15.2641  15.2848  15.3057  15.3268
 CONDUCTIVITY      4.8259   4.8614   4.8969   4.9324   4.9680   5.0036   5.0393   5.0750
 PRANDTL NUMBER    0.6959   0.6961   0.6962   0.6964   0.6966   0.6967   0.6969   0.6970

  WITH FROZEN REACTIONS

 Cp, KJ/(KG)(K)   15.1830  15.2029  15.2231  15.2435  15.2641  15.2848  15.3057  15.3268
 CONDUCTIVITY      4.8259   4.8614   4.8969   4.9324   4.9680   5.0036   5.0393   5.0750
 PRANDTL NUMBER    0.6959   0.6961   0.6962   0.6964   0.6966   0.6967   0.6969   0.6970

 MOLE FRACTIONS

 *H2              1.00000  1.00000  1.00000  1.00000  1.00000  1.00000  1.00000  1.00000

  * THERMODYNAMIC PROPERTIES FITTED TO 20000.K

 NOTE. WEIGHT FRACTION OF FUEL IN TOTAL FUELS AND OF OXIDANT IN TOTAL OXIDANTS









               THERMODYNAMIC EQUILIBRIUM PROPERTIES AT ASSIGNED

                           TEMPERATURE AND PRESSURE

 CASE =                

             REACTANT                    WT FRACTION      ENERGY      TEMP
                                          (SEE NOTE)     KJ/KG-MOL      K  
             H2                           1.0000000         0.000      0.000

 O/F=    0.00000  %FUEL=100.000000  R,EQ.RATIO= 0.000000  PHI,EQ.RATIO= 0.000000

 THERMODYNAMIC PROPERTIES

 P, BAR            54.000
 T, K             1190.00
 RHO, KG/CU M    1.1002 0
 H, KJ/KG         13138.0
 U, KJ/KG         8229.88
 G, KJ/KG        -68539.8
 S, KJ/(KG)(K)    68.6369

 M, (1/n)           2.016
 (dLV/dLP)t      -0.99999
 (dLV/dLT)p        1.0000
 Cp, KJ/(KG)(K)   15.3480
 GAMMAs            1.3675
 SON VEL,M/SEC     2590.7

 TRANSPORT PROPERTIES (GASES ONLY)
   CONDUCTIVITY IN UNITS OF MILLIWATTS/(CM)(K)

 VISC,MILLIPOISE  0.23215

  WITH EQUILIBRIUM REACTIONS

 Cp, KJ/(KG)(K)   15.3480
 CONDUCTIVITY      5.1107
 PRANDTL NUMBER    0.6972

  WITH FROZEN REACTIONS

 Cp, KJ/(KG)(K)   15.3480
 CONDUCTIVITY      5.1107
 PRANDTL NUMBER    0.6972

 MOLE FRACTIONS

 *H2              1.00000

  * THERMODYNAMIC PROPERTIES FITTED TO 20000.K

 NOTE. WEIGHT FRACTION OF FUEL IN TOTAL FUELS AND OF OXIDANT IN TOTAL OXIDANTS



  
