
 *******************************************************************************

         NASA-GLENN CHEMICAL EQUILIBRIUM PROGRAM CEA2, MAY 21, 2004
                   BY  BONNIE MCBRIDE AND SANFORD GORDON
      REFS: NASA RP-1311, PART I, 1994 AND NASA RP-1311, PART II, 1996

 *******************************************************************************



  prob tp ions
  p,bar= 12.0,13.2,14.8,16.5,18.0,20.0,22.5,25.0,28.0,31.0,35.0,39.0,44.0,49.0,54
 .0
  t,k= 4350,4360,4370,4380,4390,4400,4410,4420,4430,4440,4450,4460,4470,4480,4490
  
  reac
  na H2                wt%=100.0000
  
  output short
  output siunits
  output transport
  
 end





               THERMODYNAMIC EQUILIBRIUM PROPERTIES AT ASSIGNED

                           TEMPERATURE AND PRESSURE

 CASE =                

             REACTANT                    WT FRACTION      ENERGY      TEMP
                                          (SEE NOTE)     KJ/KG-MOL      K  
             H2                           1.0000000         0.000      0.000

 O/F=    0.00000  %FUEL=100.000000  R,EQ.RATIO= 0.000000  PHI,EQ.RATIO= 0.000000

 THERMODYNAMIC PROPERTIES

 P, BAR            12.000   12.000   12.000   12.000   12.000   12.000   12.000   12.000
 T, K             4350.00  4360.00  4370.00  4380.00  4390.00  4400.00  4410.00  4420.00
 RHO, KG/CU M    4.8669-2 4.8390-2 4.8113-2 4.7838-2 4.7564-2 4.7293-2 4.7023-2 4.6755-2
 H, KJ/KG        155869.8 157163.6 158462.0 159764.5 161071.0 162381.1 163694.8 165011.7
 U, KJ/KG        131213.7 132365.4 133520.9 134679.8 135842.0 137007.2 138175.2 139345.9
 G, KJ/KG       -368336.7-369541.4-370750.8-371963.3-373178.8-374397.2-375618.7-376843.1
 S, KJ/(KG)(K)   120.5072 120.8039 121.1013 121.3990 121.6970 121.9951 122.2933 122.5916

 M, (1/n)           1.467    1.462    1.457    1.452    1.447    1.442    1.437    1.432
 (dLV/dLP)t      -1.11709 -1.11768 -1.11824 -1.11879 -1.11931 -1.11982 -1.12030 -1.12076
 (dLV/dLT)p        2.5015   2.5057   2.5095   2.5131   2.5163   2.5193   2.5220   2.5244
 Cp, KJ/(KG)(K)  129.1853 129.6256 130.0470 130.4490 130.8313 131.1937 131.5360 131.8577
 GAMMAs            1.1869   1.1874   1.1878   1.1883   1.1888   1.1893   1.1898   1.1903
 SON VEL,M/SEC     5409.7   5426.3   5443.0   5459.7   5476.5   5493.4   5510.3   5527.2

 TRANSPORT PROPERTIES (GASES ONLY)
   CONDUCTIVITY IN UNITS OF MILLIWATTS/(CM)(K)

 VISC,MILLIPOISE  0.69975  0.70054  0.70129  0.70202  0.70271  0.70338  0.70401  0.70461

  WITH EQUILIBRIUM REACTIONS

 Cp, KJ/(KG)(K)  129.1853 129.6254 130.0470 130.4490 130.8313 131.1937 131.5360 131.8577
 CONDUCTIVITY    160.0834 160.4546 160.7994 161.1168 161.4066 161.6687 161.9030 162.1092
 PRANDTL NUMBER    0.5647   0.5659   0.5672   0.5684   0.5696   0.5708   0.5720   0.5731

  WITH FROZEN REACTIONS

 Cp, KJ/(KG)(K)   20.0459  20.0556  20.0653  20.0749  20.0845  20.0940  20.1034  20.1127
 CONDUCTIVITY     19.4904  19.5114  19.5323  19.5525  19.5719  19.5906  19.6085  19.6257
 PRANDTL NUMBER    0.7197   0.7201   0.7204   0.7208   0.7211   0.7214   0.7218   0.7221

 MOLE FRACTIONS

 *H               0.54465  0.54967  0.55467  0.55965  0.56462  0.56957  0.57450  0.57941
 *H2              0.45535  0.45033  0.44533  0.44035  0.43538  0.43043  0.42550  0.42059

  * THERMODYNAMIC PROPERTIES FITTED TO 20000.K

 NOTE. WEIGHT FRACTION OF FUEL IN TOTAL FUELS AND OF OXIDANT IN TOTAL OXIDANTS









               THERMODYNAMIC EQUILIBRIUM PROPERTIES AT ASSIGNED

                           TEMPERATURE AND PRESSURE

 CASE =                

             REACTANT                    WT FRACTION      ENERGY      TEMP
                                          (SEE NOTE)     KJ/KG-MOL      K  
             H2                           1.0000000         0.000      0.000

 O/F=    0.00000  %FUEL=100.000000  R,EQ.RATIO= 0.000000  PHI,EQ.RATIO= 0.000000

 THERMODYNAMIC PROPERTIES

 P, BAR            12.000   12.000   12.000   12.000   12.000   12.000   12.000   13.200
 T, K             4430.00  4440.00  4450.00  4460.00  4470.00  4480.00  4490.00  4350.00
 RHO, KG/CU M    4.6489-2 4.6225-2 4.5962-2 4.5702-2 4.5444-2 4.5187-2 4.4933-2 5.4132-2
 H, KJ/KG        166331.8 167654.8 168980.5 170308.7 171639.2 172971.7 174306.0 152390.2
 U, KJ/KG        140519.1 141694.6 142872.2 144051.6 145232.8 146415.4 147599.4 128005.4
 G, KJ/KG       -378070.5-379300.9-380534.3-381770.6-383009.9-384252.3-385497.5-365997.8
 S, KJ/(KG)(K)   122.8899 123.1882 123.4865 123.7846 124.0826 124.3803 124.6778 119.1697

 M, (1/n)           1.427    1.422    1.417    1.412    1.407    1.403    1.398    1.483
 (dLV/dLP)t      -1.12119 -1.12161 -1.12200 -1.12236 -1.12271 -1.12303 -1.12332 -1.11508
 (dLV/dLT)p        2.5265   2.5283   2.5299   2.5311   2.5320   2.5326   2.5330   2.4757
 Cp, KJ/(KG)(K)  132.1587 132.4387 132.6975 132.9347 133.1504 133.3441 133.5158 126.1119
 GAMMAs            1.1908   1.1913   1.1919   1.1924   1.1929   1.1935   1.1940   1.1867
 SON VEL,M/SEC     5544.2   5561.2   5578.3   5595.4   5612.6   5629.8   5647.0   5379.5

 TRANSPORT PROPERTIES (GASES ONLY)
   CONDUCTIVITY IN UNITS OF MILLIWATTS/(CM)(K)

 VISC,MILLIPOISE  0.70519  0.70573  0.70624  0.70673  0.70718  0.70761  0.70800  0.70139

  WITH EQUILIBRIUM REACTIONS

 Cp, KJ/(KG)(K)  132.1587 132.4387 132.6975 132.9347 133.1504 133.3441 133.5158 126.1118
 CONDUCTIVITY    162.2874 162.4373 162.5589 162.6521 162.7170 162.7534 162.7615 157.7206
 PRANDTL NUMBER    0.5743   0.5754   0.5765   0.5776   0.5787   0.5797   0.5808   0.5608

  WITH FROZEN REACTIONS

 Cp, KJ/(KG)(K)   20.1219  20.1311  20.1402  20.1492  20.1581  20.1669  20.1757  20.0319
 CONDUCTIVITY     19.6422  19.6580  19.6731  19.6875  19.7013  19.7143  19.7267  19.5483
 PRANDTL NUMBER    0.7224   0.7227   0.7230   0.7233   0.7236   0.7239   0.7241   0.7187

 MOLE FRACTIONS

 *H               0.58430  0.58916  0.59401  0.59883  0.60363  0.60840  0.61315  0.52846
 *H2              0.41570  0.41084  0.40599  0.40117  0.39637  0.39160  0.38685  0.47154

  * THERMODYNAMIC PROPERTIES FITTED TO 20000.K

 NOTE. WEIGHT FRACTION OF FUEL IN TOTAL FUELS AND OF OXIDANT IN TOTAL OXIDANTS









               THERMODYNAMIC EQUILIBRIUM PROPERTIES AT ASSIGNED

                           TEMPERATURE AND PRESSURE

 CASE =                

             REACTANT                    WT FRACTION      ENERGY      TEMP
                                          (SEE NOTE)     KJ/KG-MOL      K  
             H2                           1.0000000         0.000      0.000

 O/F=    0.00000  %FUEL=100.000000  R,EQ.RATIO= 0.000000  PHI,EQ.RATIO= 0.000000

 THERMODYNAMIC PROPERTIES

 P, BAR            13.200   13.200   13.200   13.200   13.200   13.200   13.200   13.200
 T, K             4360.00  4370.00  4380.00  4390.00  4400.00  4410.00  4420.00  4430.00
 RHO, KG/CU M    5.3825-2 5.3520-2 5.3216-2 5.2915-2 5.2615-2 5.2317-2 5.2022-2 5.1728-2
 H, KJ/KG        153653.8 154922.0 156194.8 157472.0 158753.4 160038.8 161328.0 162620.9
 U, KJ/KG        129129.8 130258.2 131390.4 132526.2 133665.6 134808.2 135954.0 137102.8
 G, KJ/KG       -367190.9-368386.9-369585.9-370787.7-371992.5-373200.2-374410.8-375624.4
 S, KJ/(KG)(K)   119.4598 119.7503 120.0413 120.3325 120.6241 120.9159 121.2079 121.5001

 M, (1/n)           1.478    1.473    1.468    1.463    1.458    1.453    1.448    1.443
 (dLV/dLP)t      -1.11572 -1.11634 -1.11694 -1.11752 -1.11809 -1.11863 -1.11915 -1.11965
 (dLV/dLT)p        2.4806   2.4852   2.4895   2.4936   2.4974   2.5009   2.5042   2.5072
 Cp, KJ/(KG)(K)  126.5929 127.0566 127.5029 127.9314 128.3417 128.7337 129.1070 129.4613
 GAMMAs            1.1872   1.1877   1.1881   1.1886   1.1891   1.1895   1.1900   1.1905
 SON VEL,M/SEC     5395.8   5412.2   5428.7   5445.2   5461.8   5478.4   5495.1   5511.8

 TRANSPORT PROPERTIES (GASES ONLY)
   CONDUCTIVITY IN UNITS OF MILLIWATTS/(CM)(K)

 VISC,MILLIPOISE  0.70227  0.70313  0.70396  0.70475  0.70552  0.70626  0.70697  0.70764

  WITH EQUILIBRIUM REACTIONS

 Cp, KJ/(KG)(K)  126.5929 127.0566 127.5029 127.9314 128.3417 128.7337 129.1070 129.4613
 CONDUCTIVITY    158.1656 158.5852 158.9791 159.3472 159.6891 160.0048 160.2940 160.5565
 PRANDTL NUMBER    0.5621   0.5633   0.5646   0.5658   0.5670   0.5682   0.5694   0.5706

  WITH FROZEN REACTIONS

 Cp, KJ/(KG)(K)   20.0417  20.0514  20.0610  20.0706  20.0801  20.0896  20.0989  20.1082
 CONDUCTIVITY     19.5725  19.5959  19.6186  19.6405  19.6617  19.6821  19.7018  19.7207
 PRANDTL NUMBER    0.7191   0.7195   0.7198   0.7202   0.7205   0.7209   0.7212   0.7215

 MOLE FRACTIONS

 *H               0.53344  0.53842  0.54338  0.54833  0.55326  0.55817  0.56307  0.56795
 *H2              0.46655  0.46158  0.45662  0.45167  0.44674  0.44183  0.43693  0.43205

  * THERMODYNAMIC PROPERTIES FITTED TO 20000.K

 NOTE. WEIGHT FRACTION OF FUEL IN TOTAL FUELS AND OF OXIDANT IN TOTAL OXIDANTS









               THERMODYNAMIC EQUILIBRIUM PROPERTIES AT ASSIGNED

                           TEMPERATURE AND PRESSURE

 CASE =                

             REACTANT                    WT FRACTION      ENERGY      TEMP
                                          (SEE NOTE)     KJ/KG-MOL      K  
             H2                           1.0000000         0.000      0.000

 O/F=    0.00000  %FUEL=100.000000  R,EQ.RATIO= 0.000000  PHI,EQ.RATIO= 0.000000

 THERMODYNAMIC PROPERTIES

 P, BAR            13.200   13.200   13.200   13.200   13.200   13.200   14.800   14.800
 T, K             4440.00  4450.00  4460.00  4470.00  4480.00  4490.00  4350.00  4360.00
 RHO, KG/CU M    5.1436-2 5.1146-2 5.0859-2 5.0573-2 5.0289-2 5.0008-2 6.1489-2 6.1145-2
 H, KJ/KG        163917.2 165216.7 166519.3 167824.8 169132.9 170443.5 148346.0 149572.0
 U, KJ/KG        138254.3 139408.5 140565.1 141724.0 142884.9 144047.6 124276.6 125367.0
 G, KJ/KG       -376840.8-378060.2-379282.5-380507.8-381735.9-382967.0-363226.1-364403.4
 S, KJ/(KG)(K)   121.7923 122.0847 122.3771 122.6695 122.9618 123.2540 117.6028 117.8843

 M, (1/n)           1.439    1.434    1.429    1.424    1.419    1.414    1.503    1.498
 (dLV/dLP)t      -1.12014 -1.12059 -1.12103 -1.12145 -1.12184 -1.12221 -1.11245 -1.11314
 (dLV/dLT)p        2.5099   2.5123   2.5144   2.5163   2.5178   2.5191   2.4420   2.4476
 Cp, KJ/(KG)(K)  129.7963 130.1118 130.4075 130.6832 130.9386 131.1736 122.3300 122.8507
 GAMMAs            1.1910   1.1915   1.1920   1.1925   1.1931   1.1936   1.1866   1.1871
 SON VEL,M/SEC     5528.5   5545.4   5562.2   5579.1   5596.1   5613.0   5344.3   5360.3

 TRANSPORT PROPERTIES (GASES ONLY)
   CONDUCTIVITY IN UNITS OF MILLIWATTS/(CM)(K)

 VISC,MILLIPOISE  0.70829  0.70891  0.70950  0.71006  0.71059  0.71109  0.70295  0.70395

  WITH EQUILIBRIUM REACTIONS

 Cp, KJ/(KG)(K)  129.7963 130.1118 130.4075 130.6832 130.9386 131.1736 122.3298 122.8507
 CONDUCTIVITY    160.7922 161.0010 161.1827 161.3373 161.4646 161.5647 154.6224 155.1456
 PRANDTL NUMBER    0.5718   0.5729   0.5740   0.5751   0.5762   0.5773   0.5561   0.5574

  WITH FROZEN REACTIONS

 Cp, KJ/(KG)(K)   20.1174  20.1265  20.1356  20.1445  20.1534  20.1622  20.0157  20.0255
 CONDUCTIVITY     19.7390  19.7565  19.7733  19.7894  19.8048  19.8196  19.6090  19.6361
 PRANDTL NUMBER    0.7219   0.7222   0.7225   0.7228   0.7231   0.7234   0.7175   0.7179

 MOLE FRACTIONS

 *H               0.57281  0.57766  0.58248  0.58728  0.59207  0.59682  0.50918  0.51412
 *H2              0.42719  0.42234  0.41752  0.41272  0.40793  0.40318  0.49082  0.48588

  * THERMODYNAMIC PROPERTIES FITTED TO 20000.K

 NOTE. WEIGHT FRACTION OF FUEL IN TOTAL FUELS AND OF OXIDANT IN TOTAL OXIDANTS









               THERMODYNAMIC EQUILIBRIUM PROPERTIES AT ASSIGNED

                           TEMPERATURE AND PRESSURE

 CASE =                

             REACTANT                    WT FRACTION      ENERGY      TEMP
                                          (SEE NOTE)     KJ/KG-MOL      K  
             H2                           1.0000000         0.000      0.000

 O/F=    0.00000  %FUEL=100.000000  R,EQ.RATIO= 0.000000  PHI,EQ.RATIO= 0.000000

 THERMODYNAMIC PROPERTIES

 P, BAR            14.800   14.800   14.800   14.800   14.800   14.800   14.800   14.800
 T, K             4370.00  4380.00  4390.00  4400.00  4410.00  4420.00  4430.00  4440.00
 RHO, KG/CU M    6.0802-2 6.0462-2 6.0124-2 5.9787-2 5.9453-2 5.9121-2 5.8791-2 5.8462-2
 H, KJ/KG        150803.0 152039.0 153279.9 154525.4 155775.4 157029.8 158288.3 159550.9
 U, KJ/KG        126461.8 127560.9 128664.0 129771.0 130881.8 131996.3 133114.2 134235.4
 G, KJ/KG       -365583.7-366766.7-367952.6-369141.4-370333.0-371527.4-372724.6-373924.7
 S, KJ/(KG)(K)   118.1663 118.4488 118.7318 119.0152 119.2990 119.5831 119.8675 120.1522

 M, (1/n)           1.493    1.488    1.483    1.478    1.473    1.468    1.463    1.458
 (dLV/dLP)t      -1.11382 -1.11448 -1.11513 -1.11576 -1.11637 -1.11696 -1.11753 -1.11808
 (dLV/dLT)p        2.4530   2.4582   2.4632   2.4678   2.4723   2.4765   2.4804   2.4841
 Cp, KJ/(KG)(K)  123.3563 123.8465 124.3211 124.7797 125.2220 125.6477 126.0565 126.4481
 GAMMAs            1.1875   1.1879   1.1884   1.1888   1.1893   1.1898   1.1902   1.1907
 SON VEL,M/SEC     5376.3   5392.4   5408.6   5424.8   5441.1   5457.4   5473.8   5490.3

 TRANSPORT PROPERTIES (GASES ONLY)
   CONDUCTIVITY IN UNITS OF MILLIWATTS/(CM)(K)

 VISC,MILLIPOISE  0.70492  0.70587  0.70678  0.70767  0.70853  0.70936  0.71016  0.71093

  WITH EQUILIBRIUM REACTIONS

 Cp, KJ/(KG)(K)  123.3563 123.8465 124.3211 124.7797 125.2220 125.6477 126.0565 126.4481
 CONDUCTIVITY    155.6454 156.1218 156.5743 157.0028 157.4069 157.7865 158.1414 158.4712
 PRANDTL NUMBER    0.5587   0.5599   0.5612   0.5624   0.5637   0.5649   0.5661   0.5673

  WITH FROZEN REACTIONS

 Cp, KJ/(KG)(K)   20.0352  20.0449  20.0545  20.0640  20.0734  20.0828  20.0921  20.1014
 CONDUCTIVITY     19.6626  19.6882  19.7131  19.7373  19.7607  19.7833  19.8053  19.8265
 PRANDTL NUMBER    0.7183   0.7187   0.7190   0.7194   0.7197   0.7201   0.7204   0.7208

 MOLE FRACTIONS

 *H               0.51904  0.52396  0.52887  0.53377  0.53865  0.54353  0.54839  0.55323
 *H2              0.48096  0.47604  0.47113  0.46623  0.46134  0.45647  0.45161  0.44677

  * THERMODYNAMIC PROPERTIES FITTED TO 20000.K

 NOTE. WEIGHT FRACTION OF FUEL IN TOTAL FUELS AND OF OXIDANT IN TOTAL OXIDANTS









               THERMODYNAMIC EQUILIBRIUM PROPERTIES AT ASSIGNED

                           TEMPERATURE AND PRESSURE

 CASE =                

             REACTANT                    WT FRACTION      ENERGY      TEMP
                                          (SEE NOTE)     KJ/KG-MOL      K  
             H2                           1.0000000         0.000      0.000

 O/F=    0.00000  %FUEL=100.000000  R,EQ.RATIO= 0.000000  PHI,EQ.RATIO= 0.000000

 THERMODYNAMIC PROPERTIES

 P, BAR            14.800   14.800   14.800   14.800   14.800   16.500   16.500   16.500
 T, K             4450.00  4460.00  4470.00  4480.00  4490.00  4350.00  4360.00  4370.00
 RHO, KG/CU M    5.8136-2 5.7812-2 5.7491-2 5.7171-2 5.6854-2 6.9385-2 6.9002-2 6.8621-2
 H, KJ/KG        160817.2 162087.2 163360.7 164637.5 165917.4 144639.2 145828.8 147023.7
 U, KJ/KG        135359.8 136487.2 137617.4 138750.3 139885.6 120858.9 121916.4 122978.6
 G, KJ/KG       -375127.7-376333.5-377542.1-378753.6-379968.0-360624.7-361787.5-362953.2
 S, KJ/(KG)(K)   120.4371 120.7221 121.0073 121.2927 121.5780 116.1526 116.4258 116.6995

 M, (1/n)           1.453    1.449    1.444    1.439    1.434    1.521    1.516    1.511
 (dLV/dLP)t      -1.11862 -1.11913 -1.11963 -1.12010 -1.12055 -1.10976 -1.11050 -1.11123
 (dLV/dLT)p        2.4875   2.4906   2.4935   2.4961   2.4985   2.4076   2.4139   2.4200
 Cp, KJ/(KG)(K)  126.8222 127.1785 127.5168 127.8368 128.1382 118.6748 119.2248 119.7616
 GAMMAs            1.1912   1.1917   1.1922   1.1927   1.1932   1.1866   1.1870   1.1874
 SON VEL,M/SEC     5506.8   5523.3   5539.9   5556.5   5573.2   5312.0   5327.6   5343.3

 TRANSPORT PROPERTIES (GASES ONLY)
   CONDUCTIVITY IN UNITS OF MILLIWATTS/(CM)(K)

 VISC,MILLIPOISE  0.71167  0.71238  0.71307  0.71373  0.71435  0.70404  0.70514  0.70622

  WITH EQUILIBRIUM REACTIONS

 Cp, KJ/(KG)(K)  126.8222 127.1785 127.5168 127.8368 128.1382 118.6745 119.2248 119.7616
 CONDUCTIVITY    158.7759 159.0553 159.3092 159.5374 159.7399 151.4491 152.0371 152.6037
 PRANDTL NUMBER    0.5684   0.5696   0.5708   0.5719   0.5730   0.5517   0.5530   0.5542

  WITH FROZEN REACTIONS

 Cp, KJ/(KG)(K)   20.1105  20.1196  20.1287  20.1376  20.1465  20.0008  20.0106  20.0204
 CONDUCTIVITY     19.8469  19.8667  19.8857  19.9040  19.9217  19.6569  19.6868  19.7160
 PRANDTL NUMBER    0.7211   0.7215   0.7218   0.7221   0.7224   0.7164   0.7167   0.7171

 MOLE FRACTIONS

 *H               0.55806  0.56287  0.56766  0.57244  0.57720  0.49106  0.49594  0.50081
 *H2              0.44194  0.43713  0.43234  0.42756  0.42280  0.50894  0.50406  0.49919

  * THERMODYNAMIC PROPERTIES FITTED TO 20000.K

 NOTE. WEIGHT FRACTION OF FUEL IN TOTAL FUELS AND OF OXIDANT IN TOTAL OXIDANTS









               THERMODYNAMIC EQUILIBRIUM PROPERTIES AT ASSIGNED

                           TEMPERATURE AND PRESSURE

 CASE =                

             REACTANT                    WT FRACTION      ENERGY      TEMP
                                          (SEE NOTE)     KJ/KG-MOL      K  
             H2                           1.0000000         0.000      0.000

 O/F=    0.00000  %FUEL=100.000000  R,EQ.RATIO= 0.000000  PHI,EQ.RATIO= 0.000000

 THERMODYNAMIC PROPERTIES

 P, BAR            16.500   16.500   16.500   16.500   16.500   16.500   16.500   16.500
 T, K             4380.00  4390.00  4400.00  4410.00  4420.00  4430.00  4440.00  4450.00
 RHO, KG/CU M    6.8242-2 6.7865-2 6.7490-2 6.7117-2 6.6747-2 6.6378-2 6.6012-2 6.5648-2
 H, KJ/KG        148223.9 149429.3 150639.8 151855.1 153075.2 154299.8 155528.9 156762.3
 U, KJ/KG        124045.3 125116.4 126191.8 127271.4 128354.9 129442.3 130533.5 131628.2
 G, KJ/KG       -364121.5-365292.6-366466.5-367643.1-368822.5-370004.7-371189.6-372377.3
 S, KJ/(KG)(K)   116.9739 117.2487 117.5242 117.8001 118.0764 118.3532 118.6303 118.9078

 M, (1/n)           1.506    1.501    1.496    1.492    1.487    1.482    1.477    1.472
 (dLV/dLP)t      -1.11194 -1.11264 -1.11332 -1.11398 -1.11463 -1.11526 -1.11588 -1.11647
 (dLV/dLT)p        2.4258   2.4315   2.4369   2.4421   2.4471   2.4518   2.4563   2.4606
 Cp, KJ/(KG)(K)  120.2851 120.7947 121.2903 121.7715 122.2380 122.6895 123.1256 123.5462
 GAMMAs            1.1878   1.1882   1.1887   1.1891   1.1896   1.1900   1.1905   1.1909
 SON VEL,M/SEC     5359.1   5374.9   5390.8   5406.8   5422.8   5438.8   5454.9   5471.1

 TRANSPORT PROPERTIES (GASES ONLY)
   CONDUCTIVITY IN UNITS OF MILLIWATTS/(CM)(K)

 VISC,MILLIPOISE  0.70727  0.70830  0.70929  0.71026  0.71120  0.71211  0.71300  0.71385

  WITH EQUILIBRIUM REACTIONS

 Cp, KJ/(KG)(K)  120.2851 120.7947 121.2903 121.7715 122.2380 122.6895 123.1256 123.5462
 CONDUCTIVITY    153.1489 153.6722 154.1734 154.6523 155.1085 155.5418 155.9520 156.3388
 PRANDTL NUMBER    0.5555   0.5568   0.5580   0.5593   0.5605   0.5617   0.5629   0.5641

  WITH FROZEN REACTIONS

 Cp, KJ/(KG)(K)   20.0300  20.0396  20.0492  20.0586  20.0680  20.0774  20.0866  20.0958
 CONDUCTIVITY     19.7445  19.7722  19.7992  19.8254  19.8509  19.8756  19.8996  19.9229
 PRANDTL NUMBER    0.7175   0.7179   0.7182   0.7186   0.7190   0.7193   0.7197   0.7200

 MOLE FRACTIONS

 *H               0.50568  0.51054  0.51539  0.52024  0.52507  0.52989  0.53471  0.53951
 *H2              0.49432  0.48946  0.48461  0.47976  0.47493  0.47011  0.46529  0.46049

  * THERMODYNAMIC PROPERTIES FITTED TO 20000.K

 NOTE. WEIGHT FRACTION OF FUEL IN TOTAL FUELS AND OF OXIDANT IN TOTAL OXIDANTS









               THERMODYNAMIC EQUILIBRIUM PROPERTIES AT ASSIGNED

                           TEMPERATURE AND PRESSURE

 CASE =                

             REACTANT                    WT FRACTION      ENERGY      TEMP
                                          (SEE NOTE)     KJ/KG-MOL      K  
             H2                           1.0000000         0.000      0.000

 O/F=    0.00000  %FUEL=100.000000  R,EQ.RATIO= 0.000000  PHI,EQ.RATIO= 0.000000

 THERMODYNAMIC PROPERTIES

 P, BAR            16.500   16.500   16.500   16.500   18.000   18.000   18.000   18.000
 T, K             4460.00  4470.00  4480.00  4490.00  4350.00  4360.00  4370.00  4380.00
 RHO, KG/CU M    6.5286-2 6.4927-2 6.4569-2 6.4214-2 7.6412-2 7.5995-2 7.5580-2 7.5167-2
 H, KJ/KG        157999.8 159241.2 160486.5 161735.4 141770.1 142930.2 144096.0 145267.2
 U, KJ/KG        132726.4 133827.9 134932.5 136040.1 118213.5 119244.4 120280.2 121320.7
 G, KJ/KG       -373567.7-374761.0-375957.0-377155.8-358565.3-359716.8-360871.0-362027.9
 S, KJ/(KG)(K)   119.1855 119.4636 119.7419 120.0203 115.0196 115.2860 115.5531 115.8208

 M, (1/n)           1.467    1.462    1.458    1.453    1.535    1.531    1.526    1.521
 (dLV/dLP)t      -1.11705 -1.11761 -1.11815 -1.11867 -1.10751 -1.10828 -1.10904 -1.10978
 (dLV/dLT)p        2.4646   2.4684   2.4719   2.4751   2.3786   2.3854   2.3920   2.3983
 Cp, KJ/(KG)(K)  123.9509 124.3394 124.7115 125.0668 115.7270 116.2952 116.8516 117.3960
 GAMMAs            1.1914   1.1919   1.1923   1.1928   1.1866   1.1870   1.1874   1.1878
 SON VEL,M/SEC     5487.3   5503.6   5519.9   5536.2   5287.0   5302.3   5317.7   5333.2

 TRANSPORT PROPERTIES (GASES ONLY)
   CONDUCTIVITY IN UNITS OF MILLIWATTS/(CM)(K)

 VISC,MILLIPOISE  0.71468  0.71548  0.71625  0.71700  0.70465  0.70584  0.70699  0.70813

  WITH EQUILIBRIUM REACTIONS

 Cp, KJ/(KG)(K)  123.9509 124.3394 124.7115 125.0668 115.7268 116.2952 116.8516 117.3960
 CONDUCTIVITY    156.7020 157.0415 157.3569 157.6483 148.7735 149.4068 150.0204 150.6141
 PRANDTL NUMBER    0.5653   0.5665   0.5677   0.5688   0.5481   0.5494   0.5507   0.5519

  WITH FROZEN REACTIONS

 Cp, KJ/(KG)(K)   20.1050  20.1140  20.1230  20.1319  19.9893  19.9991  20.0088  20.0185
 CONDUCTIVITY     19.9455  19.9673  19.9885  20.0089  19.6885  19.7206  19.7520  19.7827
 PRANDTL NUMBER    0.7204   0.7207   0.7211   0.7214   0.7154   0.7158   0.7162   0.7166

 MOLE FRACTIONS

 *H               0.54429  0.54907  0.55382  0.55857  0.47672  0.48155  0.48637  0.49119
 *H2              0.45571  0.45093  0.44618  0.44143  0.52328  0.51845  0.51363  0.50881

  * THERMODYNAMIC PROPERTIES FITTED TO 20000.K

 NOTE. WEIGHT FRACTION OF FUEL IN TOTAL FUELS AND OF OXIDANT IN TOTAL OXIDANTS









               THERMODYNAMIC EQUILIBRIUM PROPERTIES AT ASSIGNED

                           TEMPERATURE AND PRESSURE

 CASE =                

             REACTANT                    WT FRACTION      ENERGY      TEMP
                                          (SEE NOTE)     KJ/KG-MOL      K  
             H2                           1.0000000         0.000      0.000

 O/F=    0.00000  %FUEL=100.000000  R,EQ.RATIO= 0.000000  PHI,EQ.RATIO= 0.000000

 THERMODYNAMIC PROPERTIES

 P, BAR            18.000   18.000   18.000   18.000   18.000   18.000   18.000   18.000
 T, K             4390.00  4400.00  4410.00  4420.00  4430.00  4440.00  4450.00  4460.00
 RHO, KG/CU M    7.4757-2 7.4349-2 7.3942-2 7.3538-2 7.3137-2 7.2737-2 7.2340-2 7.1945-2
 H, KJ/KG        146443.8 147625.7 148812.7 150004.8 151201.6 152403.3 153609.4 154820.1
 U, KJ/KG        122365.8 123415.4 124469.5 125527.7 126590.1 127656.5 128726.8 129800.9
 G, KJ/KG       -363187.4-364349.6-365514.6-366682.2-367852.5-369025.6-370201.3-371379.8
 S, KJ/(KG)(K)   116.0891 116.3580 116.6275 116.8975 117.1680 117.4389 117.7103 117.9820

 M, (1/n)           1.516    1.511    1.506    1.501    1.497    1.492    1.487    1.482
 (dLV/dLP)t      -1.11052 -1.11123 -1.11193 -1.11262 -1.11329 -1.11395 -1.11459 -1.11521
 (dLV/dLT)p        2.4045   2.4105   2.4162   2.4217   2.4270   2.4321   2.4370   2.4416
 Cp, KJ/(KG)(K)  117.9280 118.4475 118.9539 119.4472 119.9268 120.3927 120.8443 121.2815
 GAMMAs            1.1882   1.1886   1.1890   1.1895   1.1899   1.1903   1.1908   1.1912
 SON VEL,M/SEC     5348.8   5364.4   5380.0   5395.8   5411.6   5427.4   5443.3   5459.2

 TRANSPORT PROPERTIES (GASES ONLY)
   CONDUCTIVITY IN UNITS OF MILLIWATTS/(CM)(K)

 VISC,MILLIPOISE  0.70923  0.71031  0.71136  0.71239  0.71339  0.71436  0.71530  0.71622

  WITH EQUILIBRIUM REACTIONS

 Cp, KJ/(KG)(K)  117.9280 118.4475 118.9539 119.4472 119.9268 120.3927 120.8443 121.2815
 CONDUCTIVITY    151.1875 151.7405 152.2726 152.7836 153.2733 153.7413 154.1874 154.6113
 PRANDTL NUMBER    0.5532   0.5545   0.5557   0.5569   0.5582   0.5594   0.5606   0.5618

  WITH FROZEN REACTIONS

 Cp, KJ/(KG)(K)   20.0281  20.0377  20.0471  20.0565  20.0659  20.0752  20.0844  20.0935
 CONDUCTIVITY     19.8126  19.8418  19.8702  19.8979  19.9249  19.9512  19.9767  20.0015
 PRANDTL NUMBER    0.7169   0.7173   0.7177   0.7181   0.7184   0.7188   0.7192   0.7195

 MOLE FRACTIONS

 *H               0.49601  0.50082  0.50562  0.51041  0.51520  0.51998  0.52475  0.52951
 *H2              0.50399  0.49918  0.49438  0.48959  0.48480  0.48002  0.47525  0.47049

  * THERMODYNAMIC PROPERTIES FITTED TO 20000.K

 NOTE. WEIGHT FRACTION OF FUEL IN TOTAL FUELS AND OF OXIDANT IN TOTAL OXIDANTS









               THERMODYNAMIC EQUILIBRIUM PROPERTIES AT ASSIGNED

                           TEMPERATURE AND PRESSURE

 CASE =                

             REACTANT                    WT FRACTION      ENERGY      TEMP
                                          (SEE NOTE)     KJ/KG-MOL      K  
             H2                           1.0000000         0.000      0.000

 O/F=    0.00000  %FUEL=100.000000  R,EQ.RATIO= 0.000000  PHI,EQ.RATIO= 0.000000

 THERMODYNAMIC PROPERTIES

 P, BAR            18.000   18.000   18.000   20.000   20.000   20.000   20.000   20.000
 T, K             4470.00  4480.00  4490.00  4350.00  4360.00  4370.00  4380.00  4390.00
 RHO, KG/CU M    7.1552-2 7.1162-2 7.0774-2 8.5856-2 8.5395-2 8.4936-2 8.4479-2 8.4024-2
 H, KJ/KG        156035.0 157254.1 158477.2 138412.0 139536.5 140666.7 141802.7 142944.2
 U, KJ/KG        130878.5 131959.6 133044.0 115117.3 116115.9 117119.6 118128.1 119141.5
 G, KJ/KG       -372560.9-373744.9-374931.5-356097.3-357235.3-358376.0-359519.3-360665.1
 S, KJ/(KG)(K)   118.2541 118.5266 118.7993 113.6803 113.9385 114.1974 114.4571 114.7174

 M, (1/n)           1.477    1.473    1.468    1.553    1.548    1.543    1.538    1.533
 (dLV/dLP)t      -1.11582 -1.11641 -1.11698 -1.10467 -1.10547 -1.10626 -1.10704 -1.10781
 (dLV/dLT)p        2.4460   2.4502   2.4541   2.3423   2.3495   2.3566   2.3634   2.3701
 Cp, KJ/(KG)(K)  121.7041 122.1116 122.5039 112.1515 112.7358 113.3099 113.8737 114.4267
 GAMMAs            1.1917   1.1921   1.1926   1.1866   1.1870   1.1874   1.1878   1.1882
 SON VEL,M/SEC     5475.3   5491.3   5507.4   5257.6   5272.6   5287.7   5302.8   5318.1

 TRANSPORT PROPERTIES (GASES ONLY)
   CONDUCTIVITY IN UNITS OF MILLIWATTS/(CM)(K)

 VISC,MILLIPOISE  0.71711  0.71797  0.71880  0.70510  0.70637  0.70762  0.70885  0.71004

  WITH EQUILIBRIUM REACTIONS

 Cp, KJ/(KG)(K)  121.7041 122.1116 122.5039 112.1513 112.7358 113.3099 113.8737 114.4267
 CONDUCTIVITY    155.0129 155.3919 155.7482 145.3983 146.0790 146.7420 147.3870 148.0137
 PRANDTL NUMBER    0.5630   0.5642   0.5654   0.5439   0.5451   0.5464   0.5477   0.5489

  WITH FROZEN REACTIONS

 Cp, KJ/(KG)(K)   20.1026  20.1116  20.1206  19.9759  19.9857  19.9954  20.0050  20.0146
 CONDUCTIVITY     20.0256  20.0490  20.0716  19.7190  19.7536  19.7876  19.8209  19.8534
 PRANDTL NUMBER    0.7199   0.7202   0.7206   0.7143   0.7147   0.7151   0.7154   0.7158

 MOLE FRACTIONS

 *H               0.53425  0.53899  0.54371  0.45960  0.46435  0.46911  0.47386  0.47861
 *H2              0.46575  0.46101  0.45629  0.54040  0.53565  0.53089  0.52614  0.52139

  * THERMODYNAMIC PROPERTIES FITTED TO 20000.K

 NOTE. WEIGHT FRACTION OF FUEL IN TOTAL FUELS AND OF OXIDANT IN TOTAL OXIDANTS









               THERMODYNAMIC EQUILIBRIUM PROPERTIES AT ASSIGNED

                           TEMPERATURE AND PRESSURE

 CASE =                

             REACTANT                    WT FRACTION      ENERGY      TEMP
                                          (SEE NOTE)     KJ/KG-MOL      K  
             H2                           1.0000000         0.000      0.000

 O/F=    0.00000  %FUEL=100.000000  R,EQ.RATIO= 0.000000  PHI,EQ.RATIO= 0.000000

 THERMODYNAMIC PROPERTIES

 P, BAR            20.000   20.000   20.000   20.000   20.000   20.000   20.000   20.000
 T, K             4400.00  4410.00  4420.00  4430.00  4440.00  4450.00  4460.00  4470.00
 RHO, KG/CU M    8.3572-2 8.3121-2 8.2673-2 8.2228-2 8.1784-2 8.1343-2 8.0905-2 8.0468-2
 H, KJ/KG        144091.2 145243.5 146401.1 147563.9 148731.6 149904.2 151081.6 152263.7
 U, KJ/KG        120159.6 121182.3 122209.6 123241.2 124277.0 125317.1 126361.2 127409.2
 G, KJ/KG       -361813.6-362964.7-364118.4-365274.7-366433.7-367595.3-368759.6-369926.4
 S, KJ/(KG)(K)   114.9784 115.2400 115.5022 115.7649 116.0282 116.2920 116.5563 116.8211

 M, (1/n)           1.529    1.524    1.519    1.514    1.510    1.505    1.500    1.495
 (dLV/dLP)t      -1.10857 -1.10931 -1.11003 -1.11075 -1.11145 -1.11214 -1.11281 -1.11346
 (dLV/dLT)p        2.3766   2.3830   2.3891   2.3950   2.4007   2.4062   2.4115   2.4166
 Cp, KJ/(KG)(K)  114.9688 115.4995 116.0186 116.5258 117.0209 117.5035 117.9733 118.4300
 GAMMAs            1.1886   1.1890   1.1894   1.1898   1.1902   1.1906   1.1911   1.1915
 SON VEL,M/SEC     5333.3   5348.7   5364.0   5379.5   5395.0   5410.6   5426.2   5441.9

 TRANSPORT PROPERTIES (GASES ONLY)
   CONDUCTIVITY IN UNITS OF MILLIWATTS/(CM)(K)

 VISC,MILLIPOISE  0.71122  0.71237  0.71349  0.71459  0.71566  0.71671  0.71773  0.71872

  WITH EQUILIBRIUM REACTIONS

 Cp, KJ/(KG)(K)  114.9688 115.4995 116.0186 116.5258 117.0209 117.5035 117.9733 118.4300
 CONDUCTIVITY    148.6217 149.2107 149.7806 150.3308 150.8613 151.3716 151.8616 152.3309
 PRANDTL NUMBER    0.5502   0.5514   0.5527   0.5539   0.5551   0.5563   0.5576   0.5588

  WITH FROZEN REACTIONS

 Cp, KJ/(KG)(K)   20.0242  20.0336  20.0431  20.0524  20.0617  20.0709  20.0801  20.0892
 CONDUCTIVITY     19.8852  19.9163  19.9467  19.9763  20.0052  20.0334  20.0609  20.0877
 PRANDTL NUMBER    0.7162   0.7166   0.7169   0.7173   0.7177   0.7180   0.7184   0.7188

 MOLE FRACTIONS

 *H               0.48335  0.48810  0.49284  0.49757  0.50230  0.50702  0.51173  0.51644
 *H2              0.51665  0.51190  0.50716  0.50243  0.49770  0.49298  0.48827  0.48356

  * THERMODYNAMIC PROPERTIES FITTED TO 20000.K

 NOTE. WEIGHT FRACTION OF FUEL IN TOTAL FUELS AND OF OXIDANT IN TOTAL OXIDANTS









               THERMODYNAMIC EQUILIBRIUM PROPERTIES AT ASSIGNED

                           TEMPERATURE AND PRESSURE

 CASE =                

             REACTANT                    WT FRACTION      ENERGY      TEMP
                                          (SEE NOTE)     KJ/KG-MOL      K  
             H2                           1.0000000         0.000      0.000

 O/F=    0.00000  %FUEL=100.000000  R,EQ.RATIO= 0.000000  PHI,EQ.RATIO= 0.000000

 THERMODYNAMIC PROPERTIES

 P, BAR            20.000   20.000   22.500   22.500   22.500   22.500   22.500   22.500
 T, K             4480.00  4490.00  4350.00  4360.00  4370.00  4380.00  4390.00  4400.00
 RHO, KG/CU M    8.0035-2 7.9603-2 9.7768-2 9.7252-2 9.6738-2 9.6227-2 9.5718-2 9.5211-2
 H, KJ/KG        153450.2 154641.1 134808.6 135893.3 136983.9 138080.3 139182.5 140290.3
 U, KJ/KG        128461.0 129516.5 111794.8 112757.5 113725.2 114698.0 115675.8 116658.5
 G, KJ/KG       -371096.0-372268.2-353370.2-354493.7-355619.6-356748.1-357879.1-359012.7
 S, KJ/(KG)(K)   117.0862 117.3517 112.2250 112.4741 112.7239 112.9745 113.2259 113.4780

 M, (1/n)           1.491    1.486    1.572    1.567    1.562    1.557    1.553    1.548
 (dLV/dLP)t      -1.11411 -1.11473 -1.10139 -1.10222 -1.10304 -1.10385 -1.10465 -1.10543
 (dLV/dLT)p        2.4215   2.4261   2.3002   2.3079   2.3154   2.3227   2.3299   2.3369
 Cp, KJ/(KG)(K)  118.8735 119.3034 108.1709 108.7666 109.3537 109.9320 110.5013 111.0613
 GAMMAs            1.1919   1.1924   1.1868   1.1871   1.1875   1.1879   1.1882   1.1886
 SON VEL,M/SEC     5457.6   5473.4   5226.1   5240.7   5255.4   5270.2   5285.0   5299.9

 TRANSPORT PROPERTIES (GASES ONLY)
   CONDUCTIVITY IN UNITS OF MILLIWATTS/(CM)(K)

 VISC,MILLIPOISE  0.71969  0.72063  0.70524  0.70660  0.70795  0.70927  0.71057  0.71184

  WITH EQUILIBRIUM REACTIONS

 Cp, KJ/(KG)(K)  118.8735 119.3034 108.1708 108.7666 109.3537 109.9320 110.5013 111.0613
 CONDUCTIVITY    152.7794 153.2068 141.4833 142.2081 142.9171 143.6102 144.2870 144.9472
 PRANDTL NUMBER    0.5600   0.5612   0.5392   0.5404   0.5417   0.5429   0.5442   0.5454

  WITH FROZEN REACTIONS

 Cp, KJ/(KG)(K)   20.0983  20.1072  19.9615  19.9712  19.9809  19.9905  20.0001  20.0097
 CONDUCTIVITY     20.1138  20.1391  19.7432  19.7806  19.8173  19.8534  19.8887  19.9234
 PRANDTL NUMBER    0.7191   0.7195   0.7130   0.7134   0.7138   0.7142   0.7145   0.7149

 MOLE FRACTIONS

 *H               0.52114  0.52582  0.44079  0.44545  0.45012  0.45478  0.45945  0.46412
 *H2              0.47886  0.47418  0.55921  0.55455  0.54988  0.54522  0.54055  0.53588

  * THERMODYNAMIC PROPERTIES FITTED TO 20000.K

 NOTE. WEIGHT FRACTION OF FUEL IN TOTAL FUELS AND OF OXIDANT IN TOTAL OXIDANTS









               THERMODYNAMIC EQUILIBRIUM PROPERTIES AT ASSIGNED

                           TEMPERATURE AND PRESSURE

 CASE =                

             REACTANT                    WT FRACTION      ENERGY      TEMP
                                          (SEE NOTE)     KJ/KG-MOL      K  
             H2                           1.0000000         0.000      0.000

 O/F=    0.00000  %FUEL=100.000000  R,EQ.RATIO= 0.000000  PHI,EQ.RATIO= 0.000000

 THERMODYNAMIC PROPERTIES

 P, BAR            22.500   22.500   22.500   22.500   22.500   22.500   22.500   22.500
 T, K             4410.00  4420.00  4430.00  4440.00  4450.00  4460.00  4470.00  4480.00
 RHO, KG/CU M    9.4706-2 9.4204-2 9.3704-2 9.3207-2 9.2712-2 9.2220-2 9.1730-2 9.1242-2
 H, KJ/KG        141403.7 142522.5 143646.7 144776.1 145910.7 147050.3 148194.9 149344.2
 U, KJ/KG        117646.0 118638.2 119635.0 120636.3 121642.0 122652.0 123666.3 124684.6
 G, KJ/KG       -360148.7-361287.3-362428.4-363572.0-364718.2-365867.0-367018.3-368172.2
 S, KJ/(KG)(K)   113.7307 113.9841 114.2382 114.4928 114.7481 115.0039 115.2602 115.5171

 M, (1/n)           1.543    1.539    1.534    1.529    1.525    1.520    1.515    1.511
 (dLV/dLP)t      -1.10621 -1.10698 -1.10773 -1.10847 -1.10920 -1.10992 -1.11062 -1.11131
 (dLV/dLT)p        2.3438   2.3505   2.3570   2.3633   2.3694   2.3754   2.3811   2.3867
 Cp, KJ/(KG)(K)  111.6116 112.1520 112.6823 113.2020 113.7111 114.2092 114.6959 115.1712
 GAMMAs            1.1890   1.1894   1.1898   1.1902   1.1906   1.1910   1.1914   1.1918
 SON VEL,M/SEC     5314.8   5329.8   5344.9   5360.0   5375.2   5390.5   5405.8   5421.2

 TRANSPORT PROPERTIES (GASES ONLY)
   CONDUCTIVITY IN UNITS OF MILLIWATTS/(CM)(K)

 VISC,MILLIPOISE  0.71309  0.71432  0.71552  0.71670  0.71785  0.71898  0.72008  0.72116

  WITH EQUILIBRIUM REACTIONS

 Cp, KJ/(KG)(K)  111.6116 112.1520 112.6823 113.2020 113.7111 114.2092 114.6959 115.1712
 CONDUCTIVITY    145.5905 146.2166 146.8251 147.4158 147.9884 148.5426 149.0781 149.5947
 PRANDTL NUMBER    0.5467   0.5479   0.5491   0.5504   0.5516   0.5528   0.5540   0.5552

  WITH FROZEN REACTIONS

 Cp, KJ/(KG)(K)   20.0191  20.0286  20.0379  20.0472  20.0565  20.0656  20.0748  20.0838
 CONDUCTIVITY     19.9573  19.9906  20.0231  20.0549  20.0861  20.1165  20.1463  20.1753
 PRANDTL NUMBER    0.7153   0.7157   0.7160   0.7164   0.7168   0.7172   0.7175   0.7179

 MOLE FRACTIONS

 *H               0.46878  0.47345  0.47811  0.48277  0.48743  0.49208  0.49673  0.50137
 *H2              0.53122  0.52655  0.52189  0.51723  0.51257  0.50792  0.50327  0.49863

  * THERMODYNAMIC PROPERTIES FITTED TO 20000.K

 NOTE. WEIGHT FRACTION OF FUEL IN TOTAL FUELS AND OF OXIDANT IN TOTAL OXIDANTS









               THERMODYNAMIC EQUILIBRIUM PROPERTIES AT ASSIGNED

                           TEMPERATURE AND PRESSURE

 CASE =                

             REACTANT                    WT FRACTION      ENERGY      TEMP
                                          (SEE NOTE)     KJ/KG-MOL      K  
             H2                           1.0000000         0.000      0.000

 O/F=    0.00000  %FUEL=100.000000  R,EQ.RATIO= 0.000000  PHI,EQ.RATIO= 0.000000

 THERMODYNAMIC PROPERTIES

 P, BAR            22.500   25.000   25.000   25.000   25.000   25.000   25.000   25.000
 T, K             4490.00  4350.00  4360.00  4370.00  4380.00  4390.00  4400.00  4410.00
 RHO, KG/CU M    9.0758-2 1.0978-1 1.0921-1 1.0864-1 1.0808-1 1.0752-1 1.0696-1 1.0640-1
 H, KJ/KG        150498.2 131718.8 132768.3 133823.8 134885.1 135952.2 137025.1 138103.7
 U, KJ/KG        125706.9 108946.0 109876.7 110812.6 111753.7 112699.7 113650.8 114606.8
 G, KJ/KG       -369328.7-350958.2-352069.0-353182.2-354297.9-355415.9-356536.5-357659.4
 S, KJ/(KG)(K)   115.7744 110.9602 111.2012 111.4430 111.6856 111.9290 112.1731 112.4179

 M, (1/n)           1.506    1.588    1.584    1.579    1.574    1.570    1.565    1.561
 (dLV/dLP)t      -1.11199 -1.09838 -1.09923 -1.10007 -1.10089 -1.10172 -1.10253 -1.10333
 (dLV/dLT)p        2.3921   2.2616   2.2696   2.2774   2.2851   2.2927   2.3001   2.3073
 Cp, KJ/(KG)(K)  115.6346 104.6452 105.2458 105.8391 106.4249 107.0030 107.5731 108.1350
 GAMMAs            1.1922   1.1869   1.1873   1.1876   1.1880   1.1883   1.1887   1.1890
 SON VEL,M/SEC     5436.6   5199.1   5213.3   5227.7   5242.1   5256.6   5271.1   5285.7

 TRANSPORT PROPERTIES (GASES ONLY)
   CONDUCTIVITY IN UNITS OF MILLIWATTS/(CM)(K)

 VISC,MILLIPOISE  0.72221  0.70507  0.70651  0.70793  0.70933  0.71071  0.71206  0.71340

  WITH EQUILIBRIUM REACTIONS

 Cp, KJ/(KG)(K)  115.6346 104.6451 105.2458 105.8391 106.4249 107.0030 107.5731 108.1350
 CONDUCTIVITY    150.0922 137.8845 138.6410 139.3836 140.1119 140.8257 141.5246 142.2084
 PRANDTL NUMBER    0.5564   0.5351   0.5363   0.5376   0.5388   0.5400   0.5412   0.5425

  WITH FROZEN REACTIONS

 Cp, KJ/(KG)(K)   20.0928  19.9491  19.9588  19.9685  19.9781  19.9877  19.9972  20.0067
 CONDUCTIVITY     20.2036  19.7564  19.7961  19.8352  19.8736  19.9114  19.9485  19.9849
 PRANDTL NUMBER    0.7183   0.7119   0.7123   0.7127   0.7131   0.7134   0.7138   0.7142

 MOLE FRACTIONS

 *H               0.50601  0.42430  0.42887  0.43345  0.43803  0.44261  0.44720  0.45179
 *H2              0.49399  0.57570  0.57113  0.56655  0.56197  0.55739  0.55280  0.54821

  * THERMODYNAMIC PROPERTIES FITTED TO 20000.K

 NOTE. WEIGHT FRACTION OF FUEL IN TOTAL FUELS AND OF OXIDANT IN TOTAL OXIDANTS









               THERMODYNAMIC EQUILIBRIUM PROPERTIES AT ASSIGNED

                           TEMPERATURE AND PRESSURE

 CASE =                

             REACTANT                    WT FRACTION      ENERGY      TEMP
                                          (SEE NOTE)     KJ/KG-MOL      K  
             H2                           1.0000000         0.000      0.000

 O/F=    0.00000  %FUEL=100.000000  R,EQ.RATIO= 0.000000  PHI,EQ.RATIO= 0.000000

 THERMODYNAMIC PROPERTIES

 P, BAR            25.000   25.000   25.000   25.000   25.000   25.000   25.000   25.000
 T, K             4420.00  4430.00  4440.00  4450.00  4460.00  4470.00  4480.00  4490.00
 RHO, KG/CU M    1.0584-1 1.0529-1 1.0474-1 1.0419-1 1.0365-1 1.0310-1 1.0256-1 1.0202-1
 H, KJ/KG        139187.8 140277.4 141372.4 142472.7 143578.3 144688.9 145804.6 146925.2
 U, KJ/KG        115567.6 116533.2 117503.4 118478.2 119457.5 120441.2 121429.2 122421.3
 G, KJ/KG       -358784.8-359912.7-361043.0-362175.8-363311.1-364448.9-365589.1-366731.9
 S, KJ/(KG)(K)   112.6635 112.9097 113.1566 113.4042 113.6523 113.9011 114.1504 114.4002

 M, (1/n)           1.556    1.551    1.547    1.542    1.537    1.533    1.528    1.524
 (dLV/dLP)t      -1.10412 -1.10490 -1.10568 -1.10644 -1.10719 -1.10792 -1.10865 -1.10937
 (dLV/dLT)p        2.3144   2.3214   2.3281   2.3347   2.3412   2.3474   2.3535   2.3594
 Cp, KJ/(KG)(K)  108.6884 109.2330 109.7685 110.2947 110.8114 111.3183 111.8151 112.3015
 GAMMAs            1.1894   1.1898   1.1902   1.1905   1.1909   1.1913   1.1917   1.1921
 SON VEL,M/SEC     5300.4   5315.1   5329.9   5344.8   5359.7   5374.7   5389.7   5404.8

 TRANSPORT PROPERTIES (GASES ONLY)
   CONDUCTIVITY IN UNITS OF MILLIWATTS/(CM)(K)

 VISC,MILLIPOISE  0.71471  0.71600  0.71727  0.71851  0.71973  0.72092  0.72210  0.72324

  WITH EQUILIBRIUM REACTIONS

 Cp, KJ/(KG)(K)  108.6884 109.2330 109.7685 110.2947 110.8114 111.3183 111.8151 112.3015
 CONDUCTIVITY    142.8767 143.5292 144.1656 144.7857 145.3891 145.9755 146.5448 147.0965
 PRANDTL NUMBER    0.5437   0.5449   0.5461   0.5473   0.5486   0.5498   0.5510   0.5522

  WITH FROZEN REACTIONS

 Cp, KJ/(KG)(K)   20.0161  20.0254  20.0347  20.0440  20.0532  20.0623  20.0714  20.0804
 CONDUCTIVITY     20.0206  20.0557  20.0900  20.1237  20.1567  20.1890  20.2207  20.2516
 PRANDTL NUMBER    0.7145   0.7149   0.7153   0.7157   0.7160   0.7164   0.7168   0.7171

 MOLE FRACTIONS

 *H               0.45638  0.46097  0.46556  0.47015  0.47473  0.47932  0.48390  0.48848
 *H2              0.54362  0.53903  0.53444  0.52985  0.52527  0.52068  0.51610  0.51152

  * THERMODYNAMIC PROPERTIES FITTED TO 20000.K

 NOTE. WEIGHT FRACTION OF FUEL IN TOTAL FUELS AND OF OXIDANT IN TOTAL OXIDANTS









               THERMODYNAMIC EQUILIBRIUM PROPERTIES AT ASSIGNED

                           TEMPERATURE AND PRESSURE

 CASE =                

             REACTANT                    WT FRACTION      ENERGY      TEMP
                                          (SEE NOTE)     KJ/KG-MOL      K  
             H2                           1.0000000         0.000      0.000

 O/F=    0.00000  %FUEL=100.000000  R,EQ.RATIO= 0.000000  PHI,EQ.RATIO= 0.000000

 THERMODYNAMIC PROPERTIES

 P, BAR            28.000   28.000   28.000   28.000   28.000   28.000   28.000   28.000
 T, K             4350.00  4360.00  4370.00  4380.00  4390.00  4400.00  4410.00  4420.00
 RHO, KG/CU M    1.2431-1 1.2368-1 1.2305-1 1.2242-1 1.2179-1 1.2117-1 1.2055-1 1.1993-1
 H, KJ/KG        128534.6 129546.8 130564.8 131588.8 132618.7 133654.3 134695.7 135742.7
 U, KJ/KG        106010.1 106907.0 107809.0 108716.2 109628.5 110545.8 111468.2 112395.4
 G, KJ/KG       -348391.6-349489.1-350589.0-351691.2-352795.7-353902.6-355011.9-356123.5
 S, KJ/(KG)(K)   109.6382 109.8706 110.1038 110.3379 110.5728 110.8084 111.0448 111.2820

 M, (1/n)           1.606    1.601    1.597    1.592    1.588    1.583    1.579    1.574
 (dLV/dLP)t      -1.09509 -1.09595 -1.09680 -1.09765 -1.09848 -1.09931 -1.10014 -1.10095
 (dLV/dLT)p        2.2194   2.2277   2.2358   2.2438   2.2516   2.2593   2.2669   2.2744
 Cp, KJ/(KG)(K)  100.9084 101.5094 102.1044 102.6932 103.2755 103.8512 104.4200 104.9816
 GAMMAs            1.1872   1.1875   1.1878   1.1882   1.1885   1.1888   1.1892   1.1895
 SON VEL,M/SEC     5171.2   5185.1   5199.0   5213.1   5227.2   5241.4   5255.6   5269.9

 TRANSPORT PROPERTIES (GASES ONLY)
   CONDUCTIVITY IN UNITS OF MILLIWATTS/(CM)(K)

 VISC,MILLIPOISE  0.70459  0.70611  0.70760  0.70908  0.71054  0.71198  0.71340  0.71479

  WITH EQUILIBRIUM REACTIONS

 Cp, KJ/(KG)(K)  100.9083 101.5094 102.1044 102.6932 103.2755 103.8512 104.4200 104.9816
 CONDUCTIVITY    133.9411 134.7244 135.4955 136.2541 137.0000 137.7328 138.4522 139.1580
 PRANDTL NUMBER    0.5308   0.5320   0.5332   0.5344   0.5356   0.5368   0.5380   0.5392

  WITH FROZEN REACTIONS

 Cp, KJ/(KG)(K)   19.9363  19.9460  19.9557  19.9653  19.9748  19.9843  19.9938  20.0032
 CONDUCTIVITY     19.7621  19.8042  19.8457  19.8866  19.9268  19.9664  20.0053  20.0436
 PRANDTL NUMBER    0.7108   0.7112   0.7115   0.7119   0.7123   0.7126   0.7130   0.7134

 MOLE FRACTIONS

 *H               0.40692  0.41139  0.41587  0.42035  0.42484  0.42933  0.43383  0.43833
 *H2              0.59308  0.58861  0.58413  0.57965  0.57516  0.57066  0.56617  0.56167

  * THERMODYNAMIC PROPERTIES FITTED TO 20000.K

 NOTE. WEIGHT FRACTION OF FUEL IN TOTAL FUELS AND OF OXIDANT IN TOTAL OXIDANTS









               THERMODYNAMIC EQUILIBRIUM PROPERTIES AT ASSIGNED

                           TEMPERATURE AND PRESSURE

 CASE =                

             REACTANT                    WT FRACTION      ENERGY      TEMP
                                          (SEE NOTE)     KJ/KG-MOL      K  
             H2                           1.0000000         0.000      0.000

 O/F=    0.00000  %FUEL=100.000000  R,EQ.RATIO= 0.000000  PHI,EQ.RATIO= 0.000000

 THERMODYNAMIC PROPERTIES

 P, BAR            28.000   28.000   28.000   28.000   28.000   28.000   28.000   31.000
 T, K             4430.00  4440.00  4450.00  4460.00  4470.00  4480.00  4490.00  4350.00
 RHO, KG/CU M    1.1931-1 1.1870-1 1.1809-1 1.1748-1 1.1688-1 1.1627-1 1.1567-1 1.3895-1
 H, KJ/KG        136795.3 137853.4 138916.9 139985.8 141059.9 142139.2 143223.6 125795.8
 U, KJ/KG        113327.5 114264.4 115205.9 116152.1 117102.8 118058.0 119017.5 103484.9
 G, KJ/KG       -357237.6-358353.9-359472.7-360593.9-361717.5-362843.5-363971.9-346109.9
 S, KJ/(KG)(K)   111.5198 111.7584 111.9977 112.2376 112.4782 112.7193 112.9611 108.4841

 M, (1/n)           1.570    1.565    1.560    1.556    1.551    1.547    1.542    1.621
 (dLV/dLP)t      -1.10176 -1.10255 -1.10334 -1.10412 -1.10489 -1.10565 -1.10639 -1.09211
 (dLV/dLT)p        2.2817   2.2889   2.2959   2.3028   2.3095   2.3161   2.3225   2.1812
 Cp, KJ/(KG)(K)  105.5358 106.0823 106.6210 107.1515 107.6736 108.1871 108.6917  97.6144
 GAMMAs            1.1899   1.1902   1.1906   1.1910   1.1913   1.1917   1.1921   1.1875
 SON VEL,M/SEC     5284.3   5298.7   5313.2   5327.8   5342.4   5357.1   5371.8   5147.2

 TRANSPORT PROPERTIES (GASES ONLY)
   CONDUCTIVITY IN UNITS OF MILLIWATTS/(CM)(K)

 VISC,MILLIPOISE  0.71617  0.71752  0.71886  0.72017  0.72146  0.72272  0.72397  0.70393

  WITH EQUILIBRIUM REACTIONS

 Cp, KJ/(KG)(K)  105.5358 106.0823 106.6210 107.1515 107.6736 108.1871 108.6917  97.6143
 CONDUCTIVITY    139.8497 140.5272 141.1901 141.8381 142.4710 143.0885 143.6903 130.3584
 PRANDTL NUMBER    0.5404   0.5417   0.5429   0.5441   0.5452   0.5464   0.5476   0.5271

  WITH FROZEN REACTIONS

 Cp, KJ/(KG)(K)   20.0125  20.0218  20.0311  20.0403  20.0494  20.0585  20.0675  19.9254
 CONDUCTIVITY     20.0812  20.1182  20.1545  20.1902  20.2252  20.2595  20.2932  19.7601
 PRANDTL NUMBER    0.7137   0.7141   0.7145   0.7148   0.7152   0.7156   0.7159   0.7098

 MOLE FRACTIONS

 *H               0.44284  0.44734  0.45185  0.45636  0.46087  0.46538  0.46989  0.39167
 *H2              0.55716  0.55266  0.54815  0.54364  0.53913  0.53462  0.53011  0.60833

  * THERMODYNAMIC PROPERTIES FITTED TO 20000.K

 NOTE. WEIGHT FRACTION OF FUEL IN TOTAL FUELS AND OF OXIDANT IN TOTAL OXIDANTS









               THERMODYNAMIC EQUILIBRIUM PROPERTIES AT ASSIGNED

                           TEMPERATURE AND PRESSURE

 CASE =                

             REACTANT                    WT FRACTION      ENERGY      TEMP
                                          (SEE NOTE)     KJ/KG-MOL      K  
             H2                           1.0000000         0.000      0.000

 O/F=    0.00000  %FUEL=100.000000  R,EQ.RATIO= 0.000000  PHI,EQ.RATIO= 0.000000

 THERMODYNAMIC PROPERTIES

 P, BAR            31.000   31.000   31.000   31.000   31.000   31.000   31.000   31.000
 T, K             4360.00  4370.00  4380.00  4390.00  4400.00  4410.00  4420.00  4430.00
 RHO, KG/CU M    1.3825-1 1.3756-1 1.3687-1 1.3618-1 1.3549-1 1.3481-1 1.3413-1 1.3345-1
 H, KJ/KG        126775.0 127760.1 128751.0 129747.9 130750.5 131758.9 132772.9 133792.6
 U, KJ/KG        104351.8 105223.9 106101.2 106983.6 107871.1 108763.5 109660.9 110563.2
 G, KJ/KG       -347195.9-348284.1-349374.6-350467.3-351562.3-352659.6-353759.2-354861.2
 S, KJ/(KG)(K)   108.7089 108.9346 109.1611 109.3884 109.6166 109.8455 110.0752 110.3056

 M, (1/n)           1.617    1.612    1.608    1.603    1.599    1.595    1.590    1.586
 (dLV/dLP)t      -1.09298 -1.09383 -1.09469 -1.09553 -1.09637 -1.09721 -1.09804 -1.09886
 (dLV/dLT)p        2.1896   2.1979   2.2060   2.2141   2.2221   2.2299   2.2376   2.2452
 Cp, KJ/(KG)(K)   98.2122  98.8049  99.3925  99.9747 100.5512 101.1219 101.6865 102.2448
 GAMMAs            1.1878   1.1881   1.1884   1.1887   1.1890   1.1893   1.1897   1.1900
 SON VEL,M/SEC     5160.8   5174.4   5188.1   5201.9   5215.7   5229.7   5243.6   5257.7

 TRANSPORT PROPERTIES (GASES ONLY)
   CONDUCTIVITY IN UNITS OF MILLIWATTS/(CM)(K)

 VISC,MILLIPOISE  0.70551  0.70707  0.70861  0.71013  0.71164  0.71312  0.71459  0.71604

  WITH EQUILIBRIUM REACTIONS

 Cp, KJ/(KG)(K)   98.2122  98.8049  99.3925  99.9747 100.5512 101.1219 101.6865 102.2448
 CONDUCTIVITY    131.1598 131.9504 132.7301 133.4985 134.2553 135.0003 135.7331 136.4534
 PRANDTL NUMBER    0.5283   0.5295   0.5306   0.5318   0.5330   0.5342   0.5353   0.5365

  WITH FROZEN REACTIONS

 Cp, KJ/(KG)(K)   19.9350  19.9446  19.9542  19.9638  19.9732  19.9827  19.9921  20.0014
 CONDUCTIVITY     19.8042  19.8477  19.8907  19.9330  19.9747  20.0158  20.0562  20.0961
 PRANDTL NUMBER    0.7102   0.7105   0.7109   0.7112   0.7116   0.7119   0.7123   0.7127

 MOLE FRACTIONS

 *H               0.39605  0.40043  0.40482  0.40921  0.41361  0.41802  0.42244  0.42686
 *H2              0.60395  0.59957  0.59518  0.59079  0.58639  0.58198  0.57756  0.57314

  * THERMODYNAMIC PROPERTIES FITTED TO 20000.K

 NOTE. WEIGHT FRACTION OF FUEL IN TOTAL FUELS AND OF OXIDANT IN TOTAL OXIDANTS









               THERMODYNAMIC EQUILIBRIUM PROPERTIES AT ASSIGNED

                           TEMPERATURE AND PRESSURE

 CASE =                

             REACTANT                    WT FRACTION      ENERGY      TEMP
                                          (SEE NOTE)     KJ/KG-MOL      K  
             H2                           1.0000000         0.000      0.000

 O/F=    0.00000  %FUEL=100.000000  R,EQ.RATIO= 0.000000  PHI,EQ.RATIO= 0.000000

 THERMODYNAMIC PROPERTIES

 P, BAR            31.000   31.000   31.000   31.000   31.000   31.000   35.000   35.000
 T, K             4440.00  4450.00  4460.00  4470.00  4480.00  4490.00  4350.00  4360.00
 RHO, KG/CU M    1.3278-1 1.3210-1 1.3143-1 1.3077-1 1.3010-1 1.2944-1 1.5860-1 1.5783-1
 H, KJ/KG        134817.8 135848.5 136884.6 137926.1 138972.8 140024.7 122676.6 123617.3
 U, KJ/KG        111470.3 112382.2 113298.8 114220.0 115145.8 116076.0 100608.9 101441.0
 G, KJ/KG       -355965.4-357071.9-358180.7-359291.9-360405.4-361521.3-343417.2-344489.7
 S, KJ/(KG)(K)   110.5368 110.7686 111.0012 111.2344 111.4684 111.7029 107.1480 107.3640

 M, (1/n)           1.581    1.577    1.572    1.568    1.563    1.559    1.639    1.635
 (dLV/dLP)t      -1.09967 -1.10048 -1.10127 -1.10206 -1.10284 -1.10362 -1.08854 -1.08941
 (dLV/dLT)p        2.2527   2.2600   2.2672   2.2743   2.2812   2.2880   2.1354   2.1439
 Cp, KJ/(KG)(K)  102.7966 103.3416 103.8796 104.4104 104.9338 105.4495  93.7776  94.3677
 GAMMAs            1.1903   1.1907   1.1910   1.1914   1.1918   1.1921   1.1878   1.1881
 SON VEL,M/SEC     5271.8   5285.9   5300.2   5314.5   5328.8   5343.2   5119.9   5133.1

 TRANSPORT PROPERTIES (GASES ONLY)
   CONDUCTIVITY IN UNITS OF MILLIWATTS/(CM)(K)

 VISC,MILLIPOISE  0.71747  0.71887  0.72026  0.72163  0.72297  0.72430  0.70288  0.70452

  WITH EQUILIBRIUM REACTIONS

 Cp, KJ/(KG)(K)  102.7966 103.3416 103.8796 104.4104 104.9338 105.4495  93.7775  94.3677
 CONDUCTIVITY    137.1610 137.8556 138.5368 139.2044 139.8582 140.4978 126.0626 126.8787
 PRANDTL NUMBER    0.5377   0.5389   0.5401   0.5413   0.5424   0.5436   0.5229   0.5240

  WITH FROZEN REACTIONS

 Cp, KJ/(KG)(K)   20.0107  20.0199  20.0291  20.0383  20.0473  20.0564  19.9129  19.9225
 CONDUCTIVITY     20.1353  20.1739  20.2118  20.2491  20.2858  20.3218  19.7495  19.7958
 PRANDTL NUMBER    0.7130   0.7134   0.7137   0.7141   0.7145   0.7148   0.7087   0.7090

 MOLE FRACTIONS

 *H               0.43128  0.43571  0.44014  0.44457  0.44901  0.45344  0.37395  0.37820
 *H2              0.56872  0.56429  0.55986  0.55543  0.55099  0.54656  0.62605  0.62180

  * THERMODYNAMIC PROPERTIES FITTED TO 20000.K

 NOTE. WEIGHT FRACTION OF FUEL IN TOTAL FUELS AND OF OXIDANT IN TOTAL OXIDANTS









               THERMODYNAMIC EQUILIBRIUM PROPERTIES AT ASSIGNED

                           TEMPERATURE AND PRESSURE

 CASE =                

             REACTANT                    WT FRACTION      ENERGY      TEMP
                                          (SEE NOTE)     KJ/KG-MOL      K  
             H2                           1.0000000         0.000      0.000

 O/F=    0.00000  %FUEL=100.000000  R,EQ.RATIO= 0.000000  PHI,EQ.RATIO= 0.000000

 THERMODYNAMIC PROPERTIES

 P, BAR            35.000   35.000   35.000   35.000   35.000   35.000   35.000   35.000
 T, K             4370.00  4380.00  4390.00  4400.00  4410.00  4420.00  4430.00  4440.00
 RHO, KG/CU M    1.5705-1 1.5628-1 1.5551-1 1.5474-1 1.5398-1 1.5322-1 1.5246-1 1.5170-1
 H, KJ/KG        124563.9 125516.4 126474.7 127438.7 128408.4 129383.7 130364.7 131351.3
 U, KJ/KG        102278.2 103120.5 103967.9 104820.4 105677.8 106540.2 107407.5 108279.6
 G, KJ/KG       -345564.4-346641.3-347720.4-348801.6-349885.1-350970.8-352058.7-353148.8
 S, KJ/(KG)(K)   107.5809 107.7986 108.0171 108.2364 108.4566 108.6775 108.8992 109.1216

 M, (1/n)           1.630    1.626    1.622    1.617    1.613    1.609    1.604    1.600
 (dLV/dLP)t      -1.09027 -1.09113 -1.09198 -1.09283 -1.09367 -1.09451 -1.09534 -1.09617
 (dLV/dLT)p        2.1524   2.1607   2.1689   2.1771   2.1851   2.1931   2.2009   2.2086
 Cp, KJ/(KG)(K)   94.9539  95.5359  96.1136  96.6868  97.2553  97.8188  98.3772  98.9303
 GAMMAs            1.1884   1.1887   1.1890   1.1893   1.1896   1.1899   1.1902   1.1906
 SON VEL,M/SEC     5146.3   5159.6   5173.0   5186.5   5200.0   5213.6   5227.3   5241.0

 TRANSPORT PROPERTIES (GASES ONLY)
   CONDUCTIVITY IN UNITS OF MILLIWATTS/(CM)(K)

 VISC,MILLIPOISE  0.70615  0.70776  0.70935  0.71093  0.71249  0.71403  0.71556  0.71706

  WITH EQUILIBRIUM REACTIONS

 Cp, KJ/(KG)(K)   94.9539  95.5359  96.1136  96.6868  97.2553  97.8188  98.3772  98.9303
 CONDUCTIVITY    127.6858 128.4836 129.2717 130.0500 130.8180 131.5756 132.3224 133.0583
 PRANDTL NUMBER    0.5251   0.5263   0.5274   0.5285   0.5297   0.5308   0.5320   0.5331

  WITH FROZEN REACTIONS

 Cp, KJ/(KG)(K)   19.9321  19.9416  19.9511  19.9606  19.9700  19.9794  19.9887  19.9980
 CONDUCTIVITY     19.8416  19.8868  19.9315  19.9756  20.0191  20.0620  20.1043  20.1460
 PRANDTL NUMBER    0.7094   0.7097   0.7101   0.7104   0.7107   0.7111   0.7114   0.7118

 MOLE FRACTIONS

 *H               0.38246  0.38673  0.39101  0.39530  0.39959  0.40390  0.40821  0.41253
 *H2              0.61754  0.61327  0.60899  0.60470  0.60041  0.59610  0.59179  0.58747

  * THERMODYNAMIC PROPERTIES FITTED TO 20000.K

 NOTE. WEIGHT FRACTION OF FUEL IN TOTAL FUELS AND OF OXIDANT IN TOTAL OXIDANTS









               THERMODYNAMIC EQUILIBRIUM PROPERTIES AT ASSIGNED

                           TEMPERATURE AND PRESSURE

 CASE =                

             REACTANT                    WT FRACTION      ENERGY      TEMP
                                          (SEE NOTE)     KJ/KG-MOL      K  
             H2                           1.0000000         0.000      0.000

 O/F=    0.00000  %FUEL=100.000000  R,EQ.RATIO= 0.000000  PHI,EQ.RATIO= 0.000000

 THERMODYNAMIC PROPERTIES

 P, BAR            35.000   35.000   35.000   35.000   35.000   39.000   39.000   39.000
 T, K             4450.00  4460.00  4470.00  4480.00  4490.00  4350.00  4360.00  4370.00
 RHO, KG/CU M    1.5095-1 1.5020-1 1.4945-1 1.4871-1 1.4796-1 1.7840-1 1.7754-1 1.7669-1
 H, KJ/KG        132343.3 133340.8 134343.7 135351.9 136365.4 120026.3 120933.7 121846.9
 U, KJ/KG        109156.5 110038.2 110924.5 111815.5 112711.0  98165.3  98967.1  99774.0
 G, KJ/KG       -354241.1-355335.7-356432.5-357531.5-358632.8-341040.4-342101.3-343164.4
 S, KJ/(KG)(K)   109.3448 109.5687 109.7933 110.0186 110.2446 105.9924 106.2007 106.4099

 M, (1/n)           1.596    1.591    1.587    1.583    1.578    1.654    1.650    1.646
 (dLV/dLP)t      -1.09699 -1.09780 -1.09861 -1.09941 -1.10020 -1.08537 -1.08623 -1.08709
 (dLV/dLT)p        2.2162   2.2237   2.2311   2.2384   2.2455   2.0947   2.1033   2.1117
 Cp, KJ/(KG)(K)   99.4778 100.0196 100.5553 101.0849 101.6082  90.4498  91.0303  91.6075
 GAMMAs            1.1909   1.1912   1.1915   1.1919   1.1922   1.1882   1.1885   1.1888
 SON VEL,M/SEC     5254.8   5268.6   5282.5   5296.5   5310.5   5096.7   5109.5   5122.5

 TRANSPORT PROPERTIES (GASES ONLY)
   CONDUCTIVITY IN UNITS OF MILLIWATTS/(CM)(K)

 VISC,MILLIPOISE  0.71855  0.72002  0.72147  0.72290  0.72432  0.70173  0.70342  0.70510

  WITH EQUILIBRIUM REACTIONS

 Cp, KJ/(KG)(K)   99.4778 100.0196 100.5553 101.0849 101.6082  90.4497  91.0303  91.6075
 CONDUCTIVITY    133.7827 134.4956 135.1967 135.8856 136.5621 122.2316 123.0555 123.8716
 PRANDTL NUMBER    0.5343   0.5355   0.5366   0.5378   0.5389   0.5193   0.5204   0.5214

  WITH FROZEN REACTIONS

 Cp, KJ/(KG)(K)   20.0072  20.0164  20.0255  20.0346  20.0436  19.9022  19.9118  19.9214
 CONDUCTIVITY     20.1871  20.2277  20.2676  20.3069  20.3456  19.7330  19.7812  19.8288
 PRANDTL NUMBER    0.7121   0.7125   0.7129   0.7132   0.7136   0.7077   0.7081   0.7084

 MOLE FRACTIONS

 *H               0.41685  0.42118  0.42552  0.42985  0.43420  0.35857  0.36271  0.36686
 *H2              0.58315  0.57882  0.57448  0.57015  0.56580  0.64143  0.63729  0.63314

  * THERMODYNAMIC PROPERTIES FITTED TO 20000.K

 NOTE. WEIGHT FRACTION OF FUEL IN TOTAL FUELS AND OF OXIDANT IN TOTAL OXIDANTS









               THERMODYNAMIC EQUILIBRIUM PROPERTIES AT ASSIGNED

                           TEMPERATURE AND PRESSURE

 CASE =                

             REACTANT                    WT FRACTION      ENERGY      TEMP
                                          (SEE NOTE)     KJ/KG-MOL      K  
             H2                           1.0000000         0.000      0.000

 O/F=    0.00000  %FUEL=100.000000  R,EQ.RATIO= 0.000000  PHI,EQ.RATIO= 0.000000

 THERMODYNAMIC PROPERTIES

 P, BAR            39.000   39.000   39.000   39.000   39.000   39.000   39.000   39.000
 T, K             4380.00  4390.00  4400.00  4410.00  4420.00  4430.00  4440.00  4450.00
 RHO, KG/CU M    1.7583-1 1.7498-1 1.7414-1 1.7329-1 1.7245-1 1.7161-1 1.7078-1 1.6994-1
 H, KJ/KG        122765.9 123690.6 124620.9 125556.9 126498.5 127445.7 128398.4 129356.6
 U, KJ/KG        100585.9 101402.9 102224.8 103051.7 103883.5 104720.2 105561.7 106408.0
 G, KJ/KG       -344229.5-345296.8-346366.1-347437.6-348511.3-349587.0-350664.9-351744.9
 S, KJ/(KG)(K)   106.6200 106.8308 107.0425 107.2550 107.4683 107.6823 107.8971 108.1127

 M, (1/n)           1.642    1.638    1.633    1.629    1.625    1.621    1.617    1.612
 (dLV/dLP)t      -1.08794 -1.08880 -1.08965 -1.09049 -1.09133 -1.09217 -1.09300 -1.09383
 (dLV/dLT)p        2.1202   2.1285   2.1367   2.1449   2.1530   2.1610   2.1689   2.1767
 Cp, KJ/(KG)(K)   92.1815  92.7520  93.3189  93.8818  94.4408  94.9955  95.5458  96.0915
 GAMMAs            1.1890   1.1893   1.1896   1.1899   1.1902   1.1905   1.1908   1.1911
 SON VEL,M/SEC     5135.5   5148.5   5161.6   5174.8   5188.1   5201.4   5214.8   5228.2

 TRANSPORT PROPERTIES (GASES ONLY)
   CONDUCTIVITY IN UNITS OF MILLIWATTS/(CM)(K)

 VISC,MILLIPOISE  0.70676  0.70841  0.71005  0.71166  0.71327  0.71485  0.71642  0.71798

  WITH EQUILIBRIUM REACTIONS

 Cp, KJ/(KG)(K)   92.1815  92.7520  93.3189  93.8818  94.4408  94.9955  95.5458  96.0915
 CONDUCTIVITY    124.6797 125.4796 126.2709 127.0534 127.8268 128.5909 129.3454 130.0900
 PRANDTL NUMBER    0.5225   0.5236   0.5248   0.5259   0.5270   0.5281   0.5292   0.5303

  WITH FROZEN REACTIONS

 Cp, KJ/(KG)(K)   19.9309  19.9404  19.9499  19.9592  19.9686  19.9779  19.9872  19.9964
 CONDUCTIVITY     19.8759  19.9225  19.9685  20.0140  20.0589  20.1033  20.1472  20.1904
 PRANDTL NUMBER    0.7087   0.7091   0.7094   0.7097   0.7101   0.7104   0.7107   0.7111

 MOLE FRACTIONS

 *H               0.37102  0.37519  0.37937  0.38357  0.38777  0.39198  0.39619  0.40042
 *H2              0.62898  0.62481  0.62063  0.61643  0.61223  0.60802  0.60380  0.59958

  * THERMODYNAMIC PROPERTIES FITTED TO 20000.K

 NOTE. WEIGHT FRACTION OF FUEL IN TOTAL FUELS AND OF OXIDANT IN TOTAL OXIDANTS









               THERMODYNAMIC EQUILIBRIUM PROPERTIES AT ASSIGNED

                           TEMPERATURE AND PRESSURE

 CASE =                

             REACTANT                    WT FRACTION      ENERGY      TEMP
                                          (SEE NOTE)     KJ/KG-MOL      K  
             H2                           1.0000000         0.000      0.000

 O/F=    0.00000  %FUEL=100.000000  R,EQ.RATIO= 0.000000  PHI,EQ.RATIO= 0.000000

 THERMODYNAMIC PROPERTIES

 P, BAR            39.000   39.000   39.000   39.000   44.000   44.000   44.000   44.000
 T, K             4460.00  4470.00  4480.00  4490.00  4350.00  4360.00  4370.00  4380.00
 RHO, KG/CU M    1.6912-1 1.6829-1 1.6746-1 1.6664-1 2.0331-1 2.0236-1 2.0140-1 2.0045-1
 H, KJ/KG        130320.2 131289.3 132263.6 133243.2 117213.3 118084.7 118961.8 119844.4
 U, KJ/KG        107259.0 108114.8 108975.1 109840.0  95571.7  96340.8  97114.8  97893.8
 G, KJ/KG       -352827.2-353911.5-354998.1-356086.8-338416.7-339465.1-340515.5-341568.0
 S, KJ/(KG)(K)   108.3290 108.5460 108.7638 108.9822 104.7425 104.9426 105.1435 105.3453

 M, (1/n)           1.608    1.604    1.599    1.595    1.671    1.667    1.663    1.659
 (dLV/dLP)t      -1.09466 -1.09547 -1.09628 -1.09709 -1.08185 -1.08270 -1.08356 -1.08441
 (dLV/dLT)p        2.1844   2.1920   2.1995   2.2068   2.0496   2.0582   2.0667   2.0751
 Cp, KJ/(KG)(K)   96.6324  97.1684  97.6991  98.2245  86.8533  87.4203  87.9850  88.5472
 GAMMAs            1.1914   1.1917   1.1921   1.1924   1.1888   1.1890   1.1892   1.1895
 SON VEL,M/SEC     5241.7   5255.3   5268.9   5282.6   5072.1   5084.6   5097.2   5109.8

 TRANSPORT PROPERTIES (GASES ONLY)
   CONDUCTIVITY IN UNITS OF MILLIWATTS/(CM)(K)

 VISC,MILLIPOISE  0.71951  0.72103  0.72254  0.72402  0.70023  0.70197  0.70370  0.70542

  WITH EQUILIBRIUM REACTIONS

 Cp, KJ/(KG)(K)   96.6324  97.1684  97.6991  98.2245  86.8532  87.4203  87.9850  88.5472
 CONDUCTIVITY    130.8245 131.5485 132.2619 132.9643 117.9832 118.8102 119.6307 120.4447
 PRANDTL NUMBER    0.5315   0.5326   0.5337   0.5349   0.5155   0.5165   0.5176   0.5186

  WITH FROZEN REACTIONS

 Cp, KJ/(KG)(K)   20.0055  20.0147  20.0237  20.0328  19.8910  19.9005  19.9101  19.9196
 CONDUCTIVITY     20.2331  20.2752  20.3168  20.3577  19.7075  19.7574  19.8069  19.8560
 PRANDTL NUMBER    0.7114   0.7118   0.7121   0.7125   0.7068   0.7071   0.7074   0.7077

 MOLE FRACTIONS

 *H               0.40465  0.40889  0.41314  0.41739  0.34194  0.34594  0.34997  0.35400
 *H2              0.59535  0.59111  0.58686  0.58261  0.65806  0.65406  0.65003  0.64600

  * THERMODYNAMIC PROPERTIES FITTED TO 20000.K

 NOTE. WEIGHT FRACTION OF FUEL IN TOTAL FUELS AND OF OXIDANT IN TOTAL OXIDANTS









               THERMODYNAMIC EQUILIBRIUM PROPERTIES AT ASSIGNED

                           TEMPERATURE AND PRESSURE

 CASE =                

             REACTANT                    WT FRACTION      ENERGY      TEMP
                                          (SEE NOTE)     KJ/KG-MOL      K  
             H2                           1.0000000         0.000      0.000

 O/F=    0.00000  %FUEL=100.000000  R,EQ.RATIO= 0.000000  PHI,EQ.RATIO= 0.000000

 THERMODYNAMIC PROPERTIES

 P, BAR            44.000   44.000   44.000   44.000   44.000   44.000   44.000   44.000
 T, K             4390.00  4400.00  4410.00  4420.00  4430.00  4440.00  4450.00  4460.00
 RHO, KG/CU M    1.9950-1 1.9856-1 1.9761-1 1.9667-1 1.9574-1 1.9480-1 1.9387-1 1.9295-1
 H, KJ/KG        120732.7 121626.5 122525.9 123430.9 124341.3 125257.1 126178.4 127105.1
 U, KJ/KG         98677.8  99466.6 100260.3 101058.9 101862.2 102670.4 103483.3 104300.8
 G, KJ/KG       -342622.4-343678.9-344737.5-345798.0-346860.7-347925.4-348992.1-350061.0
 S, KJ/(KG)(K)   105.5479 105.7512 105.9554 106.1604 106.3661 106.5726 106.7799 106.9879

 M, (1/n)           1.655    1.651    1.647    1.643    1.639    1.634    1.630    1.626
 (dLV/dLP)t      -1.08526 -1.08610 -1.08695 -1.08779 -1.08862 -1.08946 -1.09029 -1.09112
 (dLV/dLT)p        2.0835   2.0918   2.1000   2.1082   2.1163   2.1243   2.1322   2.1401
 Cp, KJ/(KG)(K)   89.1067  89.6633  90.2170  90.7674  91.3146  91.8582  92.3981  92.9343
 GAMMAs            1.1898   1.1900   1.1903   1.1906   1.1908   1.1911   1.1914   1.1917
 SON VEL,M/SEC     5122.5   5135.2   5148.0   5160.9   5173.9   5186.9   5199.9   5213.1

 TRANSPORT PROPERTIES (GASES ONLY)
   CONDUCTIVITY IN UNITS OF MILLIWATTS/(CM)(K)

 VISC,MILLIPOISE  0.70712  0.70881  0.71049  0.71215  0.71380  0.71543  0.71705  0.71865

  WITH EQUILIBRIUM REACTIONS

 Cp, KJ/(KG)(K)   89.1067  89.6633  90.2170  90.7674  91.3146  91.8582  92.3981  92.9343
 CONDUCTIVITY    121.2517 122.0516 122.8441 123.6290 124.4060 125.1748 125.9352 126.6869
 PRANDTL NUMBER    0.5197   0.5207   0.5218   0.5229   0.5239   0.5250   0.5261   0.5272

  WITH FROZEN REACTIONS

 Cp, KJ/(KG)(K)   19.9290  19.9384  19.9478  19.9571  19.9664  19.9756  19.9848  19.9940
 CONDUCTIVITY     19.9045  19.9526  20.0001  20.0472  20.0937  20.1397  20.1852  20.2301
 PRANDTL NUMBER    0.7080   0.7083   0.7086   0.7090   0.7093   0.7096   0.7099   0.7103

 MOLE FRACTIONS

 *H               0.35805  0.36210  0.36617  0.37025  0.37435  0.37845  0.38256  0.38668
 *H2              0.64195  0.63790  0.63383  0.62975  0.62565  0.62155  0.61744  0.61332

  * THERMODYNAMIC PROPERTIES FITTED TO 20000.K

 NOTE. WEIGHT FRACTION OF FUEL IN TOTAL FUELS AND OF OXIDANT IN TOTAL OXIDANTS









               THERMODYNAMIC EQUILIBRIUM PROPERTIES AT ASSIGNED

                           TEMPERATURE AND PRESSURE

 CASE =                

             REACTANT                    WT FRACTION      ENERGY      TEMP
                                          (SEE NOTE)     KJ/KG-MOL      K  
             H2                           1.0000000         0.000      0.000

 O/F=    0.00000  %FUEL=100.000000  R,EQ.RATIO= 0.000000  PHI,EQ.RATIO= 0.000000

 THERMODYNAMIC PROPERTIES

 P, BAR            44.000   44.000   44.000   49.000   49.000   49.000   49.000   49.000
 T, K             4470.00  4480.00  4490.00  4350.00  4360.00  4370.00  4380.00  4390.00
 RHO, KG/CU M    1.9202-1 1.9110-1 1.9018-1 2.2838-1 2.2733-1 2.2628-1 2.2523-1 2.2418-1
 H, KJ/KG        128037.1 128974.4 129917.0 114825.3 115665.6 116511.4 117362.7 118219.5
 U, KJ/KG        105123.1 105950.0 106781.4  93369.9  94110.7  94856.4  95606.9  96362.3
 G, KJ/KG       -351131.9-352204.9-353280.0-336097.5-337135.0-338174.5-339216.0-340259.4
 S, KJ/(KG)(K)   107.1966 107.4061 107.6163 103.6604 103.8534 104.0471 104.2417 104.4371

 M, (1/n)           1.622    1.618    1.614    1.686    1.682    1.678    1.674    1.670
 (dLV/dLP)t      -1.09194 -1.09276 -1.09357 -1.07875 -1.07959 -1.08043 -1.08128 -1.08212
 (dLV/dLT)p        2.1479   2.1555   2.1631   2.0098   2.0183   2.0268   2.0352   2.0436
 Cp, KJ/(KG)(K)   93.4663  93.9943  94.5178  83.7507  84.3040  84.8555  85.4051  85.9526
 GAMMAs            1.1920   1.1923   1.1926   1.1893   1.1895   1.1897   1.1899   1.1902
 SON VEL,M/SEC     5226.2   5239.5   5252.8   5051.3   5063.5   5075.7   5088.0   5100.4

 TRANSPORT PROPERTIES (GASES ONLY)
   CONDUCTIVITY IN UNITS OF MILLIWATTS/(CM)(K)

 VISC,MILLIPOISE  0.72024  0.72181  0.72337  0.69873  0.70051  0.70228  0.70404  0.70578

  WITH EQUILIBRIUM REACTIONS

 Cp, KJ/(KG)(K)   93.4663  93.9943  94.5178  83.7506  84.3040  84.8555  85.4051  85.9526
 CONDUCTIVITY    127.4297 128.1634 128.8876 114.2287 115.0542 115.8744 116.6890 117.4978
 PRANDTL NUMBER    0.5283   0.5294   0.5305   0.5123   0.5133   0.5143   0.5153   0.5163

  WITH FROZEN REACTIONS

 Cp, KJ/(KG)(K)   20.0031  20.0122  20.0212  19.8814  19.8909  19.9004  19.9099  19.9193
 CONDUCTIVITY     20.2745  20.3184  20.3617  19.6788  19.7303  19.7813  19.8319  19.8820
 PRANDTL NUMBER    0.7106   0.7109   0.7113   0.7059   0.7062   0.7065   0.7068   0.7071

 MOLE FRACTIONS

 *H               0.39081  0.39494  0.39909  0.32755  0.33144  0.33534  0.33926  0.34319
 *H2              0.60919  0.60506  0.60091  0.67245  0.66856  0.66466  0.66074  0.65681

  * THERMODYNAMIC PROPERTIES FITTED TO 20000.K

 NOTE. WEIGHT FRACTION OF FUEL IN TOTAL FUELS AND OF OXIDANT IN TOTAL OXIDANTS









               THERMODYNAMIC EQUILIBRIUM PROPERTIES AT ASSIGNED

                           TEMPERATURE AND PRESSURE

 CASE =                

             REACTANT                    WT FRACTION      ENERGY      TEMP
                                          (SEE NOTE)     KJ/KG-MOL      K  
             H2                           1.0000000         0.000      0.000

 O/F=    0.00000  %FUEL=100.000000  R,EQ.RATIO= 0.000000  PHI,EQ.RATIO= 0.000000

 THERMODYNAMIC PROPERTIES

 P, BAR            49.000   49.000   49.000   49.000   49.000   49.000   49.000   49.000
 T, K             4400.00  4410.00  4420.00  4430.00  4440.00  4450.00  4460.00  4470.00
 RHO, KG/CU M    2.2314-1 2.2210-1 2.2107-1 2.2003-1 2.1900-1 2.1798-1 2.1695-1 2.1593-1
 H, KJ/KG        119081.7 119949.4 120822.5 121701.0 122584.9 123474.1 124368.6 125268.4
 U, KJ/KG         97122.5  97887.5  98657.2  99431.6 100210.8 100994.6 101783.1 102576.2
 G, KJ/KG       -341304.7-342352.0-343401.3-344452.6-345505.9-346561.1-347618.4-348677.7
 S, KJ/(KG)(K)   104.6333 104.8303 105.0280 105.2266 105.4258 105.6259 105.8267 106.0282

 M, (1/n)           1.666    1.662    1.658    1.654    1.650    1.646    1.642    1.638
 (dLV/dLP)t      -1.08296 -1.08379 -1.08463 -1.08546 -1.08630 -1.08712 -1.08795 -1.08877
 (dLV/dLT)p        2.0519   2.0602   2.0684   2.0765   2.0846   2.0926   2.1005   2.1083
 Cp, KJ/(KG)(K)   86.4979  87.0408  87.5813  88.1191  88.6541  89.1862  89.7151  90.2408
 GAMMAs            1.1904   1.1907   1.1909   1.1912   1.1915   1.1917   1.1920   1.1923
 SON VEL,M/SEC     5112.8   5125.3   5137.9   5150.5   5163.2   5175.9   5188.7   5201.5

 TRANSPORT PROPERTIES (GASES ONLY)
   CONDUCTIVITY IN UNITS OF MILLIWATTS/(CM)(K)

 VISC,MILLIPOISE  0.70752  0.70924  0.71095  0.71264  0.71432  0.71599  0.71765  0.71929

  WITH EQUILIBRIUM REACTIONS

 Cp, KJ/(KG)(K)   86.4979  87.0408  87.5813  88.1191  88.6541  89.1862  89.7151  90.2408
 CONDUCTIVITY    118.3007 119.0973 119.8874 120.6707 121.4471 122.2163 122.9781 123.7321
 PRANDTL NUMBER    0.5173   0.5183   0.5194   0.5204   0.5214   0.5225   0.5235   0.5246

  WITH FROZEN REACTIONS

 Cp, KJ/(KG)(K)   19.9287  19.9381  19.9474  19.9566  19.9659  19.9750  19.9842  19.9933
 CONDUCTIVITY     19.9317  19.9809  20.0297  20.0779  20.1257  20.1730  20.2198  20.2661
 PRANDTL NUMBER    0.7074   0.7077   0.7080   0.7083   0.7087   0.7090   0.7093   0.7096

 MOLE FRACTIONS

 *H               0.34713  0.35109  0.35506  0.35904  0.36304  0.36704  0.37106  0.37508
 *H2              0.65286  0.64891  0.64494  0.64096  0.63696  0.63296  0.62894  0.62492

  * THERMODYNAMIC PROPERTIES FITTED TO 20000.K

 NOTE. WEIGHT FRACTION OF FUEL IN TOTAL FUELS AND OF OXIDANT IN TOTAL OXIDANTS









               THERMODYNAMIC EQUILIBRIUM PROPERTIES AT ASSIGNED

                           TEMPERATURE AND PRESSURE

 CASE =                

             REACTANT                    WT FRACTION      ENERGY      TEMP
                                          (SEE NOTE)     KJ/KG-MOL      K  
             H2                           1.0000000         0.000      0.000

 O/F=    0.00000  %FUEL=100.000000  R,EQ.RATIO= 0.000000  PHI,EQ.RATIO= 0.000000

 THERMODYNAMIC PROPERTIES

 P, BAR            49.000   49.000   54.000   54.000   54.000   54.000   54.000   54.000
 T, K             4480.00  4490.00  4350.00  4360.00  4370.00  4380.00  4390.00  4400.00
 RHO, KG/CU M    2.1492-1 2.1390-1 2.5358-1 2.5243-1 2.5129-1 2.5014-1 2.4900-1 2.4787-1
 H, KJ/KG        126173.4 127083.7 112765.0 113578.1 114396.5 115220.4 116049.6 116884.2
 U, KJ/KG        103373.8 104176.0  91470.2  92186.3  92907.2  93632.9  94363.2  95098.3
 G, KJ/KG       -349738.9-350802.3-334020.6-335048.7-336078.6-337110.3-338144.0-339179.6
 S, KJ/(KG)(K)   106.2304 106.4334 102.7093 102.8960 103.0835 103.2719 103.4610 103.6509

 M, (1/n)           1.634    1.630    1.698    1.695    1.691    1.687    1.683    1.679
 (dLV/dLP)t      -1.08959 -1.09041 -1.07598 -1.07681 -1.07765 -1.07848 -1.07931 -1.08014
 (dLV/dLT)p        2.1161   2.1238   1.9744   1.9828   1.9912   1.9996   2.0079   2.0162
 Cp, KJ/(KG)(K)   90.7630  91.2817  81.0393  81.5790  82.1173  82.6542  83.1896  83.7232
 GAMMAs            1.1926   1.1929   1.1898   1.1900   1.1902   1.1904   1.1906   1.1909
 SON VEL,M/SEC     5214.5   5227.4   5033.4   5045.3   5057.3   5069.3   5081.4   5093.5

 TRANSPORT PROPERTIES (GASES ONLY)
   CONDUCTIVITY IN UNITS OF MILLIWATTS/(CM)(K)

 VISC,MILLIPOISE  0.72092  0.72253  0.69727  0.69907  0.70087  0.70266  0.70444  0.70620

  WITH EQUILIBRIUM REACTIONS

 Cp, KJ/(KG)(K)   90.7630  91.2817  81.0392  81.5790  82.1173  82.6542  83.1896  83.7232
 CONDUCTIVITY    124.4782 125.2162 110.8800 111.7011 112.5178 113.3299 114.1370 114.9391
 PRANDTL NUMBER    0.5257   0.5267   0.5096   0.5106   0.5115   0.5125   0.5134   0.5144

  WITH FROZEN REACTIONS

 Cp, KJ/(KG)(K)   20.0023  20.0113  19.8732  19.8827  19.8921  19.9016  19.9110  19.9203
 CONDUCTIVITY     20.3119  20.3571  19.6486  19.7013  19.7536  19.8054  19.8569  19.9079
 PRANDTL NUMBER    0.7099   0.7103   0.7052   0.7055   0.7058   0.7061   0.7064   0.7066

 MOLE FRACTIONS

 *H               0.37911  0.38316  0.31493  0.31871  0.32251  0.32632  0.33015  0.33399
 *H2              0.62089  0.61684  0.68507  0.68129  0.67749  0.67368  0.66985  0.66601

  * THERMODYNAMIC PROPERTIES FITTED TO 20000.K

 NOTE. WEIGHT FRACTION OF FUEL IN TOTAL FUELS AND OF OXIDANT IN TOTAL OXIDANTS









               THERMODYNAMIC EQUILIBRIUM PROPERTIES AT ASSIGNED

                           TEMPERATURE AND PRESSURE

 CASE =                

             REACTANT                    WT FRACTION      ENERGY      TEMP
                                          (SEE NOTE)     KJ/KG-MOL      K  
             H2                           1.0000000         0.000      0.000

 O/F=    0.00000  %FUEL=100.000000  R,EQ.RATIO= 0.000000  PHI,EQ.RATIO= 0.000000

 THERMODYNAMIC PROPERTIES

 P, BAR            54.000   54.000   54.000   54.000   54.000   54.000   54.000   54.000
 T, K             4410.00  4420.00  4430.00  4440.00  4450.00  4460.00  4470.00  4480.00
 RHO, KG/CU M    2.4673-1 2.4560-1 2.4447-1 2.4335-1 2.4223-1 2.4111-1 2.3999-1 2.3888-1
 H, KJ/KG        117724.1 118569.3 119419.8 120275.5 121136.5 122002.7 122874.1 123750.7
 U, KJ/KG         95838.0  96582.4  97331.5  98085.1  98843.4  99606.3 100373.7 101145.6
 G, KJ/KG       -340217.0-341256.4-342297.7-343340.9-344386.0-345433.1-346482.2-347533.2
 S, KJ/(KG)(K)   103.8415 104.0330 104.2252 104.4181 104.6118 104.8062 105.0014 105.1973

 M, (1/n)           1.675    1.671    1.668    1.664    1.660    1.656    1.652    1.648
 (dLV/dLP)t      -1.08097 -1.08180 -1.08263 -1.08345 -1.08428 -1.08510 -1.08592 -1.08674
 (dLV/dLT)p        2.0245   2.0326   2.0408   2.0488   2.0569   2.0648   2.0727   2.0805
 Cp, KJ/(KG)(K)   84.2550  84.7848  85.3125  85.8379  86.3610  86.8815  87.3993  87.9144
 GAMMAs            1.1911   1.1913   1.1916   1.1918   1.1921   1.1924   1.1926   1.1929
 SON VEL,M/SEC     5105.7   5118.0   5130.3   5142.7   5155.1   5167.6   5180.2   5192.8

 TRANSPORT PROPERTIES (GASES ONLY)
   CONDUCTIVITY IN UNITS OF MILLIWATTS/(CM)(K)

 VISC,MILLIPOISE  0.70796  0.70971  0.71144  0.71316  0.71487  0.71657  0.71825  0.71993

  WITH EQUILIBRIUM REACTIONS

 Cp, KJ/(KG)(K)   84.2550  84.7848  85.3125  85.8379  86.3610  86.8815  87.3993  87.9144
 CONDUCTIVITY    115.7359 116.5272 117.3126 118.0921 118.8654 119.6323 120.3924 121.1457
 PRANDTL NUMBER    0.5154   0.5164   0.5174   0.5184   0.5194   0.5204   0.5214   0.5224

  WITH FROZEN REACTIONS

 Cp, KJ/(KG)(K)   19.9296  19.9389  19.9482  19.9574  19.9666  19.9757  19.9848  19.9938
 CONDUCTIVITY     19.9585  20.0087  20.0584  20.1077  20.1565  20.2048  20.2527  20.3001
 PRANDTL NUMBER    0.7069   0.7072   0.7075   0.7078   0.7081   0.7084   0.7088   0.7091

 MOLE FRACTIONS

 *H               0.33784  0.34171  0.34559  0.34948  0.35339  0.35730  0.36123  0.36517
 *H2              0.66216  0.65829  0.65441  0.65052  0.64661  0.64270  0.63877  0.63483

  * THERMODYNAMIC PROPERTIES FITTED TO 20000.K

 NOTE. WEIGHT FRACTION OF FUEL IN TOTAL FUELS AND OF OXIDANT IN TOTAL OXIDANTS









               THERMODYNAMIC EQUILIBRIUM PROPERTIES AT ASSIGNED

                           TEMPERATURE AND PRESSURE

 CASE =                

             REACTANT                    WT FRACTION      ENERGY      TEMP
                                          (SEE NOTE)     KJ/KG-MOL      K  
             H2                           1.0000000         0.000      0.000

 O/F=    0.00000  %FUEL=100.000000  R,EQ.RATIO= 0.000000  PHI,EQ.RATIO= 0.000000

 THERMODYNAMIC PROPERTIES

 P, BAR            54.000
 T, K             4490.00
 RHO, KG/CU M    2.3778-1
 H, KJ/KG        124632.4
 U, KJ/KG        101922.0
 G, KJ/KG       -348586.1
 S, KJ/(KG)(K)   105.3939

 M, (1/n)           1.644
 (dLV/dLP)t      -1.08755
 (dLV/dLT)p        2.0883
 Cp, KJ/(KG)(K)   88.4264
 GAMMAs            1.1932
 SON VEL,M/SEC     5205.5

 TRANSPORT PROPERTIES (GASES ONLY)
   CONDUCTIVITY IN UNITS OF MILLIWATTS/(CM)(K)

 VISC,MILLIPOISE  0.72159

  WITH EQUILIBRIUM REACTIONS

 Cp, KJ/(KG)(K)   88.4264
 CONDUCTIVITY    121.8919
 PRANDTL NUMBER    0.5235

  WITH FROZEN REACTIONS

 Cp, KJ/(KG)(K)   20.0028
 CONDUCTIVITY     20.3470
 PRANDTL NUMBER    0.7094

 MOLE FRACTIONS

 *H               0.36912
 *H2              0.63088

  * THERMODYNAMIC PROPERTIES FITTED TO 20000.K

 NOTE. WEIGHT FRACTION OF FUEL IN TOTAL FUELS AND OF OXIDANT IN TOTAL OXIDANTS



  
