
 *******************************************************************************

         NASA-GLENN CHEMICAL EQUILIBRIUM PROGRAM CEA2, MAY 21, 2004
                   BY  BONNIE MCBRIDE AND SANFORD GORDON
      REFS: NASA RP-1311, PART I, 1994 AND NASA RP-1311, PART II, 1996

 *******************************************************************************



  prob tp ions
  p,bar= 2.5,2.8,3.1,3.5,3.9,4.4,4.9,5.4,6.0,6.7,7.4,8.25,9.1,10.0,11.0
  t,k= 4800,4810,4820,4830,4840,4850,4860,4870,4880,4890,4900,4910,4920,4930,4940
  
  reac
  na H2                wt%=100.0000
  
  output short
  output siunits
  output transport
  
 end





               THERMODYNAMIC EQUILIBRIUM PROPERTIES AT ASSIGNED

                           TEMPERATURE AND PRESSURE

 CASE =                

             REACTANT                    WT FRACTION      ENERGY      TEMP
                                          (SEE NOTE)     KJ/KG-MOL      K  
             H2                           1.0000000         0.000      0.000

 O/F=    0.00000  %FUEL=100.000000  R,EQ.RATIO= 0.000000  PHI,EQ.RATIO= 0.000000

 THERMODYNAMIC PROPERTIES

 P, BAR            2.5000   2.5000   2.5000   2.5000   2.5000   2.5000   2.5000   2.5000
 T, K             4800.00  4810.00  4820.00  4830.00  4840.00  4850.00  4860.00  4870.00
 RHO, KG/CU M    6.8258-3 6.8012-3 6.7769-3 6.7529-3 6.7293-3 6.7059-3 6.6829-3 6.6601-3
 H, KJ/KG        274561.7 275420.7 276267.2 277101.9 277925.1 278736.9 279537.4 280326.8
 U, KJ/KG        237936.0 238662.5 239377.2 240081.0 240774.0 241456.4 242128.3 242789.9
 G, KJ/KG       -479321.8-480891.5-482464.8-484039.8-485616.5-487194.9-488775.0-490356.7
 S, KJ/(KG)(K)   157.0591 157.2375 157.4133 157.5863 157.7565 157.9241 158.0890 158.2512

 M, (1/n)           1.090    1.088    1.086    1.085    1.083    1.082    1.080    1.079
 (dLV/dLP)t      -1.06375 -1.06275 -1.06177 -1.06079 -1.05983 -1.05888 -1.05793 -1.05700
 (dLV/dLT)p        1.7419   1.7288   1.7159   1.7032   1.6906   1.6782   1.6660   1.6540
 Cp, KJ/(KG)(K)   86.4273  85.2357  84.0571  82.8935  81.7452  80.6123  79.4951  78.3935
 GAMMAs            1.2565   1.2582   1.2600   1.2617   1.2635   1.2653   1.2671   1.2690
 SON VEL,M/SEC     6783.8   6800.7   6817.6   6834.5   6851.3   6868.2   6885.0   6901.7

 TRANSPORT PROPERTIES (GASES ONLY)
   CONDUCTIVITY IN UNITS OF MILLIWATTS/(CM)(K)

 VISC,MILLIPOISE  0.60160  0.60126  0.60094  0.60064  0.60036  0.60008  0.59983  0.59959

  WITH EQUILIBRIUM REACTIONS

 Cp, KJ/(KG)(K)   86.4239  85.2357  84.0571  82.8935  81.7452  80.6123  79.4951  78.3935
 CONDUCTIVITY     86.3148  85.0925  83.8864  82.6973  81.5254  80.3706  79.2332  78.1129
 PRANDTL NUMBER    0.6024   0.6023   0.6022   0.6021   0.6020   0.6019   0.6018   0.6017

  WITH FROZEN REACTIONS

 Cp, KJ/(KG)(K)   20.5410  20.5437  20.5464  20.5489  20.5514  20.5539  20.5562  20.5585
 CONDUCTIVITY     17.6022  17.6067  17.6119  17.6174  17.6233  17.6295  17.6360  17.6428
 PRANDTL NUMBER    0.7020   0.7016   0.7011   0.7006   0.7001   0.6996   0.6992   0.6987

 MOLE FRACTIONS

 *H               0.91892  0.92057  0.92219  0.92377  0.92532  0.92684  0.92832  0.92978
 *H2              0.08108  0.07943  0.07781  0.07622  0.07467  0.07316  0.07167  0.07022

  * THERMODYNAMIC PROPERTIES FITTED TO 20000.K

 NOTE. WEIGHT FRACTION OF FUEL IN TOTAL FUELS AND OF OXIDANT IN TOTAL OXIDANTS









               THERMODYNAMIC EQUILIBRIUM PROPERTIES AT ASSIGNED

                           TEMPERATURE AND PRESSURE

 CASE =                

             REACTANT                    WT FRACTION      ENERGY      TEMP
                                          (SEE NOTE)     KJ/KG-MOL      K  
             H2                           1.0000000         0.000      0.000

 O/F=    0.00000  %FUEL=100.000000  R,EQ.RATIO= 0.000000  PHI,EQ.RATIO= 0.000000

 THERMODYNAMIC PROPERTIES

 P, BAR            2.5000   2.5000   2.5000   2.5000   2.5000   2.5000   2.5000   2.8000
 T, K             4880.00  4890.00  4900.00  4910.00  4920.00  4930.00  4940.00  4800.00
 RHO, KG/CU M    6.6376-3 6.6154-3 6.5935-3 6.5719-3 6.5505-3 6.5294-3 6.5085-3 7.7024-3
 H, KJ/KG        281105.3 281873.0 282630.1 283376.7 284113.1 284839.3 285555.5 271380.8
 U, KJ/KG        243441.3 244082.6 244714.1 245335.8 245947.9 246550.6 247144.1 235028.5
 G, KJ/KG       -491940.0-493524.9-495111.3-496699.3-498288.8-499879.8-501472.3-475184.6
 S, KJ/(KG)(K)   158.4109 158.5681 158.7227 158.8750 159.0248 159.1722 159.3174 155.5345

 M, (1/n)           1.077    1.076    1.075    1.073    1.072    1.071    1.069    1.098
 (dLV/dLP)t      -1.05608 -1.05518 -1.05428 -1.05339 -1.05252 -1.05166 -1.05081 -1.06849
 (dLV/dLT)p        1.6421   1.6305   1.6190   1.6076   1.5965   1.5855   1.5747   1.7971
 Cp, KJ/(KG)(K)   77.3076  76.2377  75.1836  74.1455  73.1233  72.1170  71.1267  90.7894
 GAMMAs            1.2709   1.2728   1.2747   1.2766   1.2785   1.2805   1.2825   1.2514
 SON VEL,M/SEC     6918.5   6935.3   6952.0   6968.7   6985.4   7002.1   7018.8   6744.8

 TRANSPORT PROPERTIES (GASES ONLY)
   CONDUCTIVITY IN UNITS OF MILLIWATTS/(CM)(K)

 VISC,MILLIPOISE  0.59937  0.59916  0.59896  0.59879  0.59862  0.59848  0.59835  0.60819

  WITH EQUILIBRIUM REACTIONS

 Cp, KJ/(KG)(K)   77.3076  76.2377  75.1836  74.1455  73.1233  72.1170  71.1267  90.7894
 CONDUCTIVITY     77.0100  75.9243  74.8559  73.8046  72.7704  71.7533  70.7532  91.5479
 PRANDTL NUMBER    0.6017   0.6016   0.6016   0.6016   0.6015   0.6015   0.6015   0.6031

  WITH FROZEN REACTIONS

 Cp, KJ/(KG)(K)   20.5608  20.5629  20.5650  20.5671  20.5691  20.5710  20.5729  20.5335
 CONDUCTIVITY     17.6499  17.6573  17.6650  17.6731  17.6814  17.6900  17.6989  17.7276
 PRANDTL NUMBER    0.6982   0.6978   0.6973   0.6968   0.6964   0.6959   0.6955   0.7045

 MOLE FRACTIONS

 *H               0.93120  0.93259  0.93395  0.93528  0.93659  0.93786  0.93911  0.91079
 *H2              0.06880  0.06741  0.06605  0.06471  0.06341  0.06214  0.06089  0.08921

  * THERMODYNAMIC PROPERTIES FITTED TO 20000.K

 NOTE. WEIGHT FRACTION OF FUEL IN TOTAL FUELS AND OF OXIDANT IN TOTAL OXIDANTS









               THERMODYNAMIC EQUILIBRIUM PROPERTIES AT ASSIGNED

                           TEMPERATURE AND PRESSURE

 CASE =                

             REACTANT                    WT FRACTION      ENERGY      TEMP
                                          (SEE NOTE)     KJ/KG-MOL      K  
             H2                           1.0000000         0.000      0.000

 O/F=    0.00000  %FUEL=100.000000  R,EQ.RATIO= 0.000000  PHI,EQ.RATIO= 0.000000

 THERMODYNAMIC PROPERTIES

 P, BAR            2.8000   2.8000   2.8000   2.8000   2.8000   2.8000   2.8000   2.8000
 T, K             4810.00  4820.00  4830.00  4840.00  4850.00  4860.00  4870.00  4880.00
 RHO, KG/CU M    7.6738-3 7.6455-3 7.6176-3 7.5901-3 7.5629-3 7.5361-3 7.5096-3 7.4834-3
 H, KJ/KG        272282.6 273172.3 274050.1 274916.1 275770.4 276613.1 277444.4 278264.5
 U, KJ/KG        235794.6 236549.4 237293.1 238025.7 238747.5 239458.4 240158.8 240848.6
 G, KJ/KG       -476740.9-478299.1-479859.0-481420.8-482984.4-484549.7-486116.7-487685.5
 S, KJ/(KG)(K)   155.7221 155.9069 156.0888 156.2680 156.4443 156.6179 156.7887 156.9570

 M, (1/n)           1.096    1.094    1.093    1.091    1.089    1.088    1.086    1.084
 (dLV/dLP)t      -1.06747 -1.06645 -1.06545 -1.06446 -1.06348 -1.06250 -1.06154 -1.06058
 (dLV/dLT)p        1.7836   1.7702   1.7571   1.7441   1.7312   1.7185   1.7060   1.6937
 Cp, KJ/(KG)(K)   89.5747  88.3730  87.1846  86.0098  84.8488  83.7018  82.5691  81.4508
 GAMMAs            1.2530   1.2547   1.2563   1.2580   1.2597   1.2614   1.2632   1.2649
 SON VEL,M/SEC     6761.7   6778.6   6795.5   6812.4   6829.2   6846.0   6862.8   6879.5

 TRANSPORT PROPERTIES (GASES ONLY)
   CONDUCTIVITY IN UNITS OF MILLIWATTS/(CM)(K)

 VISC,MILLIPOISE  0.60780  0.60742  0.60705  0.60671  0.60637  0.60606  0.60575  0.60547

  WITH EQUILIBRIUM REACTIONS

 Cp, KJ/(KG)(K)   89.5747  88.3730  87.1846  86.0098  84.8488  83.7018  82.5691  81.4508
 CONDUCTIVITY     90.2848  89.0373  87.8056  86.5897  85.3900  84.2064  83.0391  81.8881
 PRANDTL NUMBER    0.6030   0.6029   0.6028   0.6026   0.6025   0.6024   0.6023   0.6022

  WITH FROZEN REACTIONS

 Cp, KJ/(KG)(K)   20.5364  20.5393  20.5421  20.5448  20.5474  20.5500  20.5524  20.5549
 CONDUCTIVITY     17.7311  17.7350  17.7391  17.7436  17.7484  17.7535  17.7590  17.7647
 PRANDTL NUMBER    0.7040   0.7035   0.7030   0.7025   0.7020   0.7015   0.7010   0.7006

 MOLE FRACTIONS

 *H               0.91258  0.91433  0.91605  0.91773  0.91938  0.92099  0.92257  0.92411
 *H2              0.08742  0.08567  0.08395  0.08227  0.08062  0.07901  0.07743  0.07589

  * THERMODYNAMIC PROPERTIES FITTED TO 20000.K

 NOTE. WEIGHT FRACTION OF FUEL IN TOTAL FUELS AND OF OXIDANT IN TOTAL OXIDANTS









               THERMODYNAMIC EQUILIBRIUM PROPERTIES AT ASSIGNED

                           TEMPERATURE AND PRESSURE

 CASE =                

             REACTANT                    WT FRACTION      ENERGY      TEMP
                                          (SEE NOTE)     KJ/KG-MOL      K  
             H2                           1.0000000         0.000      0.000

 O/F=    0.00000  %FUEL=100.000000  R,EQ.RATIO= 0.000000  PHI,EQ.RATIO= 0.000000

 THERMODYNAMIC PROPERTIES

 P, BAR            2.8000   2.8000   2.8000   2.8000   2.8000   2.8000   3.1000   3.1000
 T, K             4890.00  4900.00  4910.00  4920.00  4930.00  4940.00  4800.00  4810.00
 RHO, KG/CU M    7.4576-3 7.4322-3 7.4070-3 7.3821-3 7.3576-3 7.3334-3 8.5892-3 8.5564-3
 H, KJ/KG        279073.5 279871.5 280658.7 281435.2 282201.3 282956.9 268349.4 269290.2
 U, KJ/KG        241528.1 242197.4 242856.6 243505.9 244145.4 244775.2 232257.5 233059.8
 G, KJ/KG       -489255.9-490827.9-492401.6-493976.8-495553.6-497132.0-471497.7-473040.0
 S, KJ/(KG)(K)   157.1226 157.2856 157.4461 157.6041 157.7596 157.9127 154.1348 154.3306

 M, (1/n)           1.083    1.081    1.080    1.079    1.077    1.076    1.106    1.104
 (dLV/dLP)t      -1.05964 -1.05871 -1.05779 -1.05688 -1.05597 -1.05509 -1.07282 -1.07179
 (dLV/dLT)p        1.6815   1.6695   1.6576   1.6460   1.6345   1.6231   1.8475   1.8338
 Cp, KJ/(KG)(K)   80.3470  79.2580  78.1839  77.1246  76.0804  75.0512  94.6951  93.4702
 GAMMAs            1.2667   1.2685   1.2703   1.2721   1.2740   1.2759   1.2472   1.2487
 SON VEL,M/SEC     6896.3   6913.0   6929.7   6946.3   6963.0   6979.6   6709.3   6726.2

 TRANSPORT PROPERTIES (GASES ONLY)
   CONDUCTIVITY IN UNITS OF MILLIWATTS/(CM)(K)

 VISC,MILLIPOISE  0.60519  0.60494  0.60470  0.60447  0.60426  0.60406  0.61439  0.61395

  WITH EQUILIBRIUM REACTIONS

 Cp, KJ/(KG)(K)   80.3470  79.2580  78.1839  77.1246  76.0804  75.0512  94.6951  93.4702
 CONDUCTIVITY     80.7536  79.6356  78.5341  77.4491  76.3806  75.3286  96.3418  95.0501
 PRANDTL NUMBER    0.6021   0.6021   0.6020   0.6019   0.6019   0.6018   0.6039   0.6037

  WITH FROZEN REACTIONS

 Cp, KJ/(KG)(K)   20.5572  20.5595  20.5617  20.5639  20.5660  20.5680  20.5263  20.5295
 CONDUCTIVITY     17.7708  17.7771  17.7838  17.7908  17.7980  17.8056  17.8473  17.8496
 PRANDTL NUMBER    0.7001   0.6996   0.6992   0.6987   0.6982   0.6978   0.7066   0.7061

 MOLE FRACTIONS

 *H               0.92562  0.92711  0.92856  0.92998  0.93137  0.93273  0.90293  0.90485
 *H2              0.07437  0.07289  0.07144  0.07002  0.06863  0.06727  0.09707  0.09515

  * THERMODYNAMIC PROPERTIES FITTED TO 20000.K

 NOTE. WEIGHT FRACTION OF FUEL IN TOTAL FUELS AND OF OXIDANT IN TOTAL OXIDANTS









               THERMODYNAMIC EQUILIBRIUM PROPERTIES AT ASSIGNED

                           TEMPERATURE AND PRESSURE

 CASE =                

             REACTANT                    WT FRACTION      ENERGY      TEMP
                                          (SEE NOTE)     KJ/KG-MOL      K  
             H2                           1.0000000         0.000      0.000

 O/F=    0.00000  %FUEL=100.000000  R,EQ.RATIO= 0.000000  PHI,EQ.RATIO= 0.000000

 THERMODYNAMIC PROPERTIES

 P, BAR            3.1000   3.1000   3.1000   3.1000   3.1000   3.1000   3.1000   3.1000
 T, K             4820.00  4830.00  4840.00  4850.00  4860.00  4870.00  4880.00  4890.00
 RHO, KG/CU M    8.5240-3 8.4920-3 8.4604-3 8.4293-3 8.3985-3 8.3682-3 8.3383-3 8.3087-3
 H, KJ/KG        270218.8 271135.4 272039.9 272932.7 273813.7 274683.1 275541.0 276387.6
 U, KJ/KG        233850.7 234630.3 235398.7 236156.1 236902.5 237638.1 238363.0 239077.3
 G, KJ/KG       -474584.3-476130.5-477678.6-479228.5-480780.3-482333.8-483889.2-485446.2
 S, KJ/(KG)(K)   154.5235 154.7134 154.9005 155.0848 155.2662 155.4450 155.6209 155.7942

 M, (1/n)           1.102    1.100    1.098    1.096    1.095    1.093    1.091    1.090
 (dLV/dLP)t      -1.07076 -1.06974 -1.06872 -1.06772 -1.06672 -1.06573 -1.06476 -1.06379
 (dLV/dLT)p        1.8201   1.8066   1.7933   1.7801   1.7670   1.7542   1.7414   1.7288
 Cp, KJ/(KG)(K)   92.2564  91.0540  89.8633  88.6846  87.5184  86.3648  85.2241  84.0966
 GAMMAs            1.2503   1.2519   1.2534   1.2550   1.2567   1.2583   1.2600   1.2617
 SON VEL,M/SEC     6743.2   6760.1   6777.0   6793.8   6810.7   6827.5   6844.2   6861.0

 TRANSPORT PROPERTIES (GASES ONLY)
   CONDUCTIVITY IN UNITS OF MILLIWATTS/(CM)(K)

 VISC,MILLIPOISE  0.61352  0.61310  0.61270  0.61232  0.61195  0.61159  0.61125  0.61092

  WITH EQUILIBRIUM REACTIONS

 Cp, KJ/(KG)(K)   92.2564  91.0540  89.8633  88.6846  87.5184  86.3648  85.2241  84.0966
 CONDUCTIVITY     93.7724  92.5090  91.2601  90.0259  88.8067  87.6026  86.4138  85.2404
 PRANDTL NUMBER    0.6036   0.6035   0.6033   0.6032   0.6031   0.6029   0.6028   0.6027

  WITH FROZEN REACTIONS

 Cp, KJ/(KG)(K)   20.5325  20.5355  20.5384  20.5412  20.5439  20.5466  20.5492  20.5517
 CONDUCTIVITY     17.8522  17.8552  17.8585  17.8621  17.8659  17.8702  17.8747  17.8795
 PRANDTL NUMBER    0.7056   0.7051   0.7046   0.7042   0.7037   0.7032   0.7027   0.7022

 MOLE FRACTIONS

 *H               0.90672  0.90857  0.91037  0.91214  0.91387  0.91557  0.91723  0.91886
 *H2              0.09327  0.09143  0.08963  0.08786  0.08613  0.08443  0.08277  0.08114

  * THERMODYNAMIC PROPERTIES FITTED TO 20000.K

 NOTE. WEIGHT FRACTION OF FUEL IN TOTAL FUELS AND OF OXIDANT IN TOTAL OXIDANTS









               THERMODYNAMIC EQUILIBRIUM PROPERTIES AT ASSIGNED

                           TEMPERATURE AND PRESSURE

 CASE =                

             REACTANT                    WT FRACTION      ENERGY      TEMP
                                          (SEE NOTE)     KJ/KG-MOL      K  
             H2                           1.0000000         0.000      0.000

 O/F=    0.00000  %FUEL=100.000000  R,EQ.RATIO= 0.000000  PHI,EQ.RATIO= 0.000000

 THERMODYNAMIC PROPERTIES

 P, BAR            3.1000   3.1000   3.1000   3.1000   3.1000   3.5000   3.5000   3.5000
 T, K             4900.00  4910.00  4920.00  4930.00  4940.00  4800.00  4810.00  4820.00
 RHO, KG/CU M    8.2795-3 8.2507-3 8.2222-3 8.1941-3 8.1664-3 9.7867-3 9.7480-3 9.7099-3
 H, KJ/KG        277223.0 278047.3 278860.7 279663.3 280455.2 264521.5 265508.2 266482.8
 U, KJ/KG        239781.1 240474.7 241158.0 241831.3 242494.6 228758.6 229603.5 230437.0
 G, KJ/KG       -487005.0-488565.5-490127.7-491691.5-493256.9-467137.3-468662.7-470190.0
 S, KJ/(KG)(K)   155.9649 156.1330 156.2984 156.4614 156.6219 152.4289 152.6343 152.8367

 M, (1/n)           1.088    1.087    1.085    1.083    1.082    1.116    1.114    1.112
 (dLV/dLP)t      -1.06283 -1.06188 -1.06094 -1.06001 -1.05909 -1.07805 -1.07701 -1.07597
 (dLV/dLT)p        1.7164   1.7042   1.6921   1.6801   1.6684   1.9084   1.8944   1.8805
 Cp, KJ/(KG)(K)   82.9825  81.8819  80.7951  79.7222  78.6633  99.2863  98.0614  96.8448
 GAMMAs            1.2634   1.2651   1.2668   1.2686   1.2704   1.2426   1.2440   1.2455
 SON VEL,M/SEC     6877.7   6894.4   6911.0   6927.7   6944.3   6666.3   6683.3   6700.3

 TRANSPORT PROPERTIES (GASES ONLY)
   CONDUCTIVITY IN UNITS OF MILLIWATTS/(CM)(K)

 VISC,MILLIPOISE  0.61061  0.61031  0.61003  0.60977  0.60951  0.62210  0.62160  0.62112

  WITH EQUILIBRIUM REACTIONS

 Cp, KJ/(KG)(K)   82.9825  81.8819  80.7951  79.7222  78.6633  99.2863  98.0614  96.8448
 CONDUCTIVITY     84.0825  82.9402  81.8137  80.7030  79.6080 102.1284 100.8130  99.5093
 PRANDTL NUMBER    0.6026   0.6025   0.6024   0.6024   0.6023   0.6048   0.6046   0.6045

  WITH FROZEN REACTIONS

 Cp, KJ/(KG)(K)   20.5541  20.5565  20.5588  20.5611  20.5633  20.5173  20.5207  20.5240
 CONDUCTIVITY     17.8846  17.8901  17.8958  17.9019  17.9082  17.9981  17.9990  18.0003
 PRANDTL NUMBER    0.7018   0.7013   0.7008   0.7003   0.6999   0.7092   0.7087   0.7082

 MOLE FRACTIONS

 *H               0.92045  0.92201  0.92354  0.92504  0.92651  0.89284  0.89491  0.89695
 *H2              0.07955  0.07798  0.07645  0.07496  0.07349  0.10716  0.10508  0.10305

  * THERMODYNAMIC PROPERTIES FITTED TO 20000.K

 NOTE. WEIGHT FRACTION OF FUEL IN TOTAL FUELS AND OF OXIDANT IN TOTAL OXIDANTS









               THERMODYNAMIC EQUILIBRIUM PROPERTIES AT ASSIGNED

                           TEMPERATURE AND PRESSURE

 CASE =                

             REACTANT                    WT FRACTION      ENERGY      TEMP
                                          (SEE NOTE)     KJ/KG-MOL      K  
             H2                           1.0000000         0.000      0.000

 O/F=    0.00000  %FUEL=100.000000  R,EQ.RATIO= 0.000000  PHI,EQ.RATIO= 0.000000

 THERMODYNAMIC PROPERTIES

 P, BAR            3.5000   3.5000   3.5000   3.5000   3.5000   3.5000   3.5000   3.5000
 T, K             4830.00  4840.00  4850.00  4860.00  4870.00  4880.00  4890.00  4900.00
 RHO, KG/CU M    9.6722-3 9.6351-3 9.5985-3 9.5623-3 9.5266-3 9.4914-3 9.4566-3 9.4223-3
 H, KJ/KG        267445.2 268395.5 269334.0 270260.6 271175.4 272078.6 272970.3 273850.6
 U, KJ/KG        231259.2 232070.1 232869.8 233658.5 234436.2 235203.0 235959.1 236704.5
 G, KJ/KG       -471719.4-473250.7-474784.0-476319.2-477856.4-479395.3-480936.2-482478.8
 S, KJ/(KG)(K)   153.0361 153.2327 153.4264 153.6172 153.8053 153.9906 154.1731 154.3529

 M, (1/n)           1.110    1.108    1.106    1.104    1.102    1.100    1.099    1.097
 (dLV/dLP)t      -1.07493 -1.07391 -1.07288 -1.07187 -1.07086 -1.06986 -1.06887 -1.06788
 (dLV/dLT)p        1.8667   1.8531   1.8396   1.8262   1.8129   1.7998   1.7869   1.7740
 Cp, KJ/(KG)(K)   95.6369  94.4383  93.2494  92.0705  90.9021  89.7445  88.5980  87.4630
 GAMMAs            1.2470   1.2484   1.2499   1.2515   1.2530   1.2545   1.2561   1.2577
 SON VEL,M/SEC     6717.3   6734.2   6751.1   6768.0   6784.8   6801.6   6818.4   6835.1

 TRANSPORT PROPERTIES (GASES ONLY)
   CONDUCTIVITY IN UNITS OF MILLIWATTS/(CM)(K)

 VISC,MILLIPOISE  0.62065  0.62020  0.61975  0.61933  0.61891  0.61851  0.61812  0.61775

  WITH EQUILIBRIUM REACTIONS

 Cp, KJ/(KG)(K)   95.6369  94.4383  93.2494  92.0705  90.9021  89.7445  88.5980  87.4630
 CONDUCTIVITY     98.2178  96.9388  95.6726  94.4195  93.1798  91.9536  90.7414  89.5432
 PRANDTL NUMBER    0.6043   0.6042   0.6041   0.6039   0.6038   0.6036   0.6035   0.6034

  WITH FROZEN REACTIONS

 Cp, KJ/(KG)(K)   20.5272  20.5303  20.5333  20.5363  20.5392  20.5420  20.5447  20.5474
 CONDUCTIVITY     18.0019  18.0038  18.0059  18.0084  18.0112  18.0143  18.0177  18.0214
 PRANDTL NUMBER    0.7077   0.7072   0.7067   0.7063   0.7058   0.7053   0.7048   0.7043

 MOLE FRACTIONS

 *H               0.89894  0.90090  0.90282  0.90470  0.90654  0.90835  0.91012  0.91186
 *H2              0.10105  0.09910  0.09718  0.09530  0.09346  0.09165  0.08988  0.08814

  * THERMODYNAMIC PROPERTIES FITTED TO 20000.K

 NOTE. WEIGHT FRACTION OF FUEL IN TOTAL FUELS AND OF OXIDANT IN TOTAL OXIDANTS









               THERMODYNAMIC EQUILIBRIUM PROPERTIES AT ASSIGNED

                           TEMPERATURE AND PRESSURE

 CASE =                

             REACTANT                    WT FRACTION      ENERGY      TEMP
                                          (SEE NOTE)     KJ/KG-MOL      K  
             H2                           1.0000000         0.000      0.000

 O/F=    0.00000  %FUEL=100.000000  R,EQ.RATIO= 0.000000  PHI,EQ.RATIO= 0.000000

 THERMODYNAMIC PROPERTIES

 P, BAR            3.5000   3.5000   3.5000   3.5000   3.9000   3.9000   3.9000   3.9000
 T, K             4910.00  4920.00  4930.00  4940.00  4800.00  4810.00  4820.00  4830.00
 RHO, KG/CU M    9.3884-3 9.3549-3 9.3218-3 9.2892-3 1.1000-2 1.0956-2 1.0912-2 1.0868-2
 H, KJ/KG        274719.6 275577.5 276424.2 277260.1 260916.5 261943.1 262957.6 263960.1
 U, KJ/KG        237439.4 238163.9 238878.0 239582.0 225463.3 226345.3 227216.0 228075.4
 G, KJ/KG       -484023.2-485569.4-487117.3-488666.9-463283.9-464793.7-466305.7-467819.7
 S, KJ/(KG)(K)   154.5301 154.7046 154.8766 155.0460 150.8751 151.0887 151.2994 151.5072

 M, (1/n)           1.095    1.093    1.092    1.090    1.126    1.123    1.121    1.119
 (dLV/dLP)t      -1.06690 -1.06593 -1.06497 -1.06402 -1.08272 -1.08168 -1.08064 -1.07961
 (dLV/dLT)p        1.7614   1.7488   1.7364   1.7242   1.9628   1.9487   1.9347   1.9208
 Cp, KJ/(KG)(K)   86.3397  85.2284  84.1294  83.0428 103.2691 102.0558 100.8482  99.6468
 GAMMAs            1.2593   1.2610   1.2626   1.2643   1.2389   1.2402   1.2416   1.2430
 SON VEL,M/SEC     6851.9   6868.5   6885.2   6901.8   6627.3   6644.5   6661.5   6678.6

 TRANSPORT PROPERTIES (GASES ONLY)
   CONDUCTIVITY IN UNITS OF MILLIWATTS/(CM)(K)

 VISC,MILLIPOISE  0.61739  0.61704  0.61671  0.61639  0.62924  0.62870  0.62818  0.62767

  WITH EQUILIBRIUM REACTIONS

 Cp, KJ/(KG)(K)   86.3397  85.2284  84.1294  83.0428 103.2691 102.0558 100.8482  99.6468
 CONDUCTIVITY     88.3593  87.1897  86.0348  84.8945 107.3057 105.9798 104.6634 103.3569
 PRANDTL NUMBER    0.6033   0.6032   0.6031   0.6029   0.6056   0.6054   0.6053   0.6051

  WITH FROZEN REACTIONS

 Cp, KJ/(KG)(K)   20.5499  20.5525  20.5549  20.5573  20.5088  20.5124  20.5159  20.5193
 CONDUCTIVITY     18.0254  18.0297  18.0343  18.0392  18.1397  18.1395  18.1397  18.1401
 PRANDTL NUMBER    0.7039   0.7034   0.7029   0.7024   0.7114   0.7109   0.7105   0.7100

 MOLE FRACTIONS

 *H               0.91356  0.91523  0.91686  0.91846  0.88317  0.88538  0.88756  0.88970
 *H2              0.08644  0.08477  0.08314  0.08154  0.11683  0.11461  0.11244  0.11030

  * THERMODYNAMIC PROPERTIES FITTED TO 20000.K

 NOTE. WEIGHT FRACTION OF FUEL IN TOTAL FUELS AND OF OXIDANT IN TOTAL OXIDANTS









               THERMODYNAMIC EQUILIBRIUM PROPERTIES AT ASSIGNED

                           TEMPERATURE AND PRESSURE

 CASE =                

             REACTANT                    WT FRACTION      ENERGY      TEMP
                                          (SEE NOTE)     KJ/KG-MOL      K  
             H2                           1.0000000         0.000      0.000

 O/F=    0.00000  %FUEL=100.000000  R,EQ.RATIO= 0.000000  PHI,EQ.RATIO= 0.000000

 THERMODYNAMIC PROPERTIES

 P, BAR            3.9000   3.9000   3.9000   3.9000   3.9000   3.9000   3.9000   3.9000
 T, K             4840.00  4850.00  4860.00  4870.00  4880.00  4890.00  4900.00  4910.00
 RHO, KG/CU M    1.0825-2 1.0783-2 1.0741-2 1.0700-2 1.0659-2 1.0619-2 1.0579-2 1.0540-2
 H, KJ/KG        264950.6 265929.1 266895.9 267850.9 268794.2 269725.9 270646.2 271555.0
 U, KJ/KG        228923.5 229760.5 230586.5 231401.4 232205.4 232998.6 233781.1 234552.9
 G, KJ/KG       -469335.8-470854.0-472374.1-473896.2-475420.3-476946.3-478474.1-480003.9
 S, KJ/(KG)(K)   151.7121 151.9140 152.1132 152.3095 152.5030 152.6937 152.8817 153.0670

 M, (1/n)           1.117    1.115    1.113    1.111    1.109    1.107    1.105    1.103
 (dLV/dLP)t      -1.07857 -1.07754 -1.07652 -1.07550 -1.07449 -1.07348 -1.07248 -1.07149
 (dLV/dLT)p        1.9070   1.8933   1.8797   1.8662   1.8529   1.8396   1.8265   1.8136
 Cp, KJ/(KG)(K)   98.4522  97.2648  96.0852  94.9138  93.7510  92.5973  91.4530  90.3185
 GAMMAs            1.2444   1.2458   1.2472   1.2486   1.2501   1.2516   1.2531   1.2546
 SON VEL,M/SEC     6695.5   6712.5   6729.4   6746.3   6763.1   6779.9   6796.7   6813.5

 TRANSPORT PROPERTIES (GASES ONLY)
   CONDUCTIVITY IN UNITS OF MILLIWATTS/(CM)(K)

 VISC,MILLIPOISE  0.62717  0.62668  0.62621  0.62575  0.62530  0.62486  0.62443  0.62402

  WITH EQUILIBRIUM REACTIONS

 Cp, KJ/(KG)(K)   98.4522  97.2648  96.0852  94.9138  93.7510  92.5973  91.4530  90.3185
 CONDUCTIVITY    102.0608 100.7755  99.5013  98.2386  96.9878  95.7491  94.5228  93.3093
 PRANDTL NUMBER    0.6050   0.6049   0.6047   0.6046   0.6044   0.6043   0.6042   0.6040

  WITH FROZEN REACTIONS

 Cp, KJ/(KG)(K)   20.5226  20.5259  20.5290  20.5321  20.5351  20.5381  20.5409  20.5437
 CONDUCTIVITY     18.1408  18.1418  18.1430  18.1446  18.1465  18.1486  18.1511  18.1538
 PRANDTL NUMBER    0.7095   0.7090   0.7086   0.7081   0.7076   0.7071   0.7066   0.7062

 MOLE FRACTIONS

 *H               0.89180  0.89385  0.89587  0.89785  0.89979  0.90169  0.90356  0.90539
 *H2              0.10820  0.10615  0.10413  0.10215  0.10021  0.09830  0.09644  0.09460

  * THERMODYNAMIC PROPERTIES FITTED TO 20000.K

 NOTE. WEIGHT FRACTION OF FUEL IN TOTAL FUELS AND OF OXIDANT IN TOTAL OXIDANTS









               THERMODYNAMIC EQUILIBRIUM PROPERTIES AT ASSIGNED

                           TEMPERATURE AND PRESSURE

 CASE =                

             REACTANT                    WT FRACTION      ENERGY      TEMP
                                          (SEE NOTE)     KJ/KG-MOL      K  
             H2                           1.0000000         0.000      0.000

 O/F=    0.00000  %FUEL=100.000000  R,EQ.RATIO= 0.000000  PHI,EQ.RATIO= 0.000000

 THERMODYNAMIC PROPERTIES

 P, BAR            3.9000   3.9000   3.9000   4.4000   4.4000   4.4000   4.4000   4.4000
 T, K             4920.00  4930.00  4940.00  4800.00  4810.00  4820.00  4830.00  4840.00
 RHO, KG/CU M    1.0501-2 1.0463-2 1.0425-2 1.2539-2 1.2487-2 1.2435-2 1.2384-2 1.2333-2
 H, KJ/KG        272452.6 273338.9 274214.2 256692.0 257761.4 258818.8 259864.4 260898.2
 U, KJ/KG        235314.1 236064.9 236805.4 221601.8 222523.6 223434.3 224333.8 225222.3
 G, KJ/KG       -481535.5-483068.9-484604.1-459029.0-460521.2-462015.6-463512.2-465010.9
 S, KJ/(KG)(K)   153.2496 153.4296 153.6069 149.1085 149.3311 149.5507 149.7674 149.9812

 M, (1/n)           1.101    1.100    1.098    1.137    1.135    1.133    1.130    1.128
 (dLV/dLP)t      -1.07050 -1.06952 -1.06855 -1.08789 -1.08686 -1.08583 -1.08480 -1.08378
 (dLV/dLT)p        1.8007   1.7880   1.7754   2.0228   2.0088   1.9948   1.9809   1.9670
 Cp, KJ/(KG)(K)   89.1942  88.0803  86.9772 107.5239 106.3371 105.1529 103.9718 102.7945
 GAMMAs            1.2561   1.2577   1.2593   1.2351   1.2363   1.2376   1.2389   1.2402
 SON VEL,M/SEC     6830.2   6846.9   6863.5   6583.2   6600.4   6617.5   6634.6   6651.7

 TRANSPORT PROPERTIES (GASES ONLY)
   CONDUCTIVITY IN UNITS OF MILLIWATTS/(CM)(K)

 VISC,MILLIPOISE  0.62363  0.62324  0.62287  0.63745  0.63688  0.63632  0.63577  0.63523

  WITH EQUILIBRIUM REACTIONS

 Cp, KJ/(KG)(K)   89.1942  88.0803  86.9772 107.5239 106.3371 105.1529 103.9718 102.7945
 CONDUCTIVITY     92.1087  90.9212  89.7472 113.0362 111.7116 110.3937 109.0829 107.7798
 PRANDTL NUMBER    0.6039   0.6038   0.6036   0.6064   0.6062   0.6061   0.6060   0.6059

  WITH FROZEN REACTIONS

 Cp, KJ/(KG)(K)   20.5464  20.5490  20.5516  20.4988  20.5027  20.5064  20.5101  20.5136
 CONDUCTIVITY     18.1569  18.1602  18.1638  18.3050  18.3037  18.3027  18.3020  18.3015
 PRANDTL NUMBER    0.7057   0.7052   0.7047   0.7138   0.7134   0.7129   0.7125   0.7120

 MOLE FRACTIONS

 *H               0.90719  0.90895  0.91068  0.87161  0.87400  0.87634  0.87863  0.88089
 *H2              0.09281  0.09105  0.08932  0.12839  0.12600  0.12366  0.12136  0.11911

  * THERMODYNAMIC PROPERTIES FITTED TO 20000.K

 NOTE. WEIGHT FRACTION OF FUEL IN TOTAL FUELS AND OF OXIDANT IN TOTAL OXIDANTS









               THERMODYNAMIC EQUILIBRIUM PROPERTIES AT ASSIGNED

                           TEMPERATURE AND PRESSURE

 CASE =                

             REACTANT                    WT FRACTION      ENERGY      TEMP
                                          (SEE NOTE)     KJ/KG-MOL      K  
             H2                           1.0000000         0.000      0.000

 O/F=    0.00000  %FUEL=100.000000  R,EQ.RATIO= 0.000000  PHI,EQ.RATIO= 0.000000

 THERMODYNAMIC PROPERTIES

 P, BAR            4.4000   4.4000   4.4000   4.4000   4.4000   4.4000   4.4000   4.4000
 T, K             4850.00  4860.00  4870.00  4880.00  4890.00  4900.00  4910.00  4920.00
 RHO, KG/CU M    1.2283-2 1.2234-2 1.2186-2 1.2138-2 1.2091-2 1.2044-2 1.1998-2 1.1952-2
 H, KJ/KG        261920.3 262930.7 263929.4 264916.5 265892.1 266856.3 267809.0 268750.4
 U, KJ/KG        226099.7 226966.2 227821.8 228666.5 229500.4 230323.5 231136.0 231937.9
 G, KJ/KG       -466511.8-468014.8-469519.8-471026.9-472536.0-474047.0-475560.0-477075.0
 S, KJ/(KG)(K)   150.1922 150.4003 150.6056 150.8081 151.0078 151.2048 151.3990 151.5905

 M, (1/n)           1.126    1.124    1.121    1.119    1.117    1.115    1.113    1.111
 (dLV/dLP)t      -1.08275 -1.08173 -1.08071 -1.07970 -1.07868 -1.07768 -1.07667 -1.07568
 (dLV/dLT)p        1.9533   1.9396   1.9260   1.9125   1.8991   1.8858   1.8726   1.8595
 Cp, KJ/(KG)(K)  101.6216 100.4537  99.2912  98.1346  96.9846  95.8414  94.7056  93.5777
 GAMMAs            1.2415   1.2429   1.2442   1.2456   1.2470   1.2484   1.2498   1.2512
 SON VEL,M/SEC     6668.7   6685.7   6702.6   6719.6   6736.4   6753.3   6770.1   6786.8

 TRANSPORT PROPERTIES (GASES ONLY)
   CONDUCTIVITY IN UNITS OF MILLIWATTS/(CM)(K)

 VISC,MILLIPOISE  0.63470  0.63419  0.63368  0.63318  0.63270  0.63222  0.63176  0.63131

  WITH EQUILIBRIUM REACTIONS

 Cp, KJ/(KG)(K)  101.6216 100.4537  99.2912  98.1346  96.9846  95.8414  94.7056  93.5777
 CONDUCTIVITY    106.4849 105.1987 103.9216 102.6540 101.3963 100.1490  98.9122  97.6865
 PRANDTL NUMBER    0.6057   0.6056   0.6054   0.6053   0.6052   0.6050   0.6049   0.6048

  WITH FROZEN REACTIONS

 Cp, KJ/(KG)(K)   20.5171  20.5205  20.5238  20.5270  20.5302  20.5333  20.5363  20.5392
 CONDUCTIVITY     18.3012  18.3013  18.3016  18.3022  18.3030  18.3042  18.3056  18.3073
 PRANDTL NUMBER    0.7116   0.7111   0.7106   0.7102   0.7097   0.7092   0.7087   0.7083

 MOLE FRACTIONS

 *H               0.88311  0.88528  0.88742  0.88951  0.89157  0.89359  0.89557  0.89751
 *H2              0.11689  0.11472  0.11258  0.11049  0.10843  0.10641  0.10443  0.10248

  * THERMODYNAMIC PROPERTIES FITTED TO 20000.K

 NOTE. WEIGHT FRACTION OF FUEL IN TOTAL FUELS AND OF OXIDANT IN TOTAL OXIDANTS









               THERMODYNAMIC EQUILIBRIUM PROPERTIES AT ASSIGNED

                           TEMPERATURE AND PRESSURE

 CASE =                

             REACTANT                    WT FRACTION      ENERGY      TEMP
                                          (SEE NOTE)     KJ/KG-MOL      K  
             H2                           1.0000000         0.000      0.000

 O/F=    0.00000  %FUEL=100.000000  R,EQ.RATIO= 0.000000  PHI,EQ.RATIO= 0.000000

 THERMODYNAMIC PROPERTIES

 P, BAR            4.4000   4.4000   4.9000   4.9000   4.9000   4.9000   4.9000   4.9000
 T, K             4930.00  4940.00  4800.00  4810.00  4820.00  4830.00  4840.00  4850.00
 RHO, KG/CU M    1.1908-2 1.1863-2 1.4100-2 1.4040-2 1.3980-2 1.3921-2 1.3863-2 1.3805-2
 H, KJ/KG        269680.6 270599.6 252748.5 253853.8 254947.5 256029.8 257100.5 258159.8
 U, KJ/KG        232729.3 233510.3 217997.1 218952.5 219897.0 220830.7 221753.6 222665.6
 G, KJ/KG       -478591.8-480110.6-455270.3-456746.5-458225.0-459705.7-461188.7-462673.9
 S, KJ/(KG)(K)   151.7794 151.9656 147.5039 147.7339 147.9611 148.1854 148.4069 148.6255

 M, (1/n)           1.109    1.107    1.148    1.146    1.143    1.141    1.138    1.136
 (dLV/dLP)t      -1.07468 -1.07370 -1.09240 -1.09140 -1.09039 -1.08938 -1.08837 -1.08736
 (dLV/dLT)p        1.8465   1.8336   2.0754   2.0615   2.0477   2.0339   2.0201   2.0064
 Cp, KJ/(KG)(K)   92.4579  91.3467 111.1029 109.9519 108.8006 107.6496 106.4997 105.3514
 GAMMAs            1.2527   1.2542   1.2319   1.2331   1.2343   1.2356   1.2368   1.2380
 SON VEL,M/SEC     6803.5   6820.2   6543.1   6560.3   6577.6   6594.7   6611.9   6629.0

 TRANSPORT PROPERTIES (GASES ONLY)
   CONDUCTIVITY IN UNITS OF MILLIWATTS/(CM)(K)

 VISC,MILLIPOISE  0.63087  0.63045  0.64495  0.64437  0.64378  0.64321  0.64265  0.64209

  WITH EQUILIBRIUM REACTIONS

 Cp, KJ/(KG)(K)   92.4579  91.3467 111.1029 109.9519 108.8006 107.6496 106.4997 105.3514
 CONDUCTIVITY     96.4720  95.2691 118.0580 116.7469 115.4396 114.1368 112.8392 111.5472
 PRANDTL NUMBER    0.6046   0.6045   0.6070   0.6069   0.6068   0.6067   0.6065   0.6064

  WITH FROZEN REACTIONS

 Cp, KJ/(KG)(K)   20.5420  20.5448  20.4895  20.4936  20.4975  20.5014  20.5052  20.5089
 CONDUCTIVITY     18.3093  18.3115  18.4587  18.4565  18.4546  18.4530  18.4515  18.4503
 PRANDTL NUMBER    0.7078   0.7073   0.7159   0.7155   0.7151   0.7146   0.7142   0.7137

 MOLE FRACTIONS

 *H               0.89942  0.90129  0.86061  0.86314  0.86563  0.86807  0.87047  0.87283
 *H2              0.10058  0.09871  0.13939  0.13686  0.13437  0.13193  0.12952  0.12716

  * THERMODYNAMIC PROPERTIES FITTED TO 20000.K

 NOTE. WEIGHT FRACTION OF FUEL IN TOTAL FUELS AND OF OXIDANT IN TOTAL OXIDANTS









               THERMODYNAMIC EQUILIBRIUM PROPERTIES AT ASSIGNED

                           TEMPERATURE AND PRESSURE

 CASE =                

             REACTANT                    WT FRACTION      ENERGY      TEMP
                                          (SEE NOTE)     KJ/KG-MOL      K  
             H2                           1.0000000         0.000      0.000

 O/F=    0.00000  %FUEL=100.000000  R,EQ.RATIO= 0.000000  PHI,EQ.RATIO= 0.000000

 THERMODYNAMIC PROPERTIES

 P, BAR            4.9000   4.9000   4.9000   4.9000   4.9000   4.9000   4.9000   4.9000
 T, K             4860.00  4870.00  4880.00  4890.00  4900.00  4910.00  4920.00  4930.00
 RHO, KG/CU M    1.3748-2 1.3692-2 1.3637-2 1.3582-2 1.3529-2 1.3475-2 1.3423-2 1.3371-2
 H, KJ/KG        259207.5 260243.9 261268.8 262282.3 263284.6 264275.5 265255.2 266223.7
 U, KJ/KG        223566.9 224457.5 225337.3 226206.5 227065.0 227913.0 228750.4 229577.4
 G, KJ/KG       -464161.2-465650.7-467142.3-468636.0-470131.7-471629.5-473129.3-474631.0
 S, KJ/(KG)(K)   148.8413 149.0543 149.2646 149.4720 149.6768 149.8788 150.0781 150.2748

 M, (1/n)           1.134    1.131    1.129    1.127    1.125    1.123    1.121    1.119
 (dLV/dLP)t      -1.08635 -1.08534 -1.08434 -1.08333 -1.08233 -1.08132 -1.08032 -1.07933
 (dLV/dLT)p        1.9927   1.9791   1.9656   1.9521   1.9388   1.9255   1.9123   1.8992
 Cp, KJ/(KG)(K)  104.2054 103.0622 101.9225 100.7867  99.6555  98.5292  97.4084  96.2936
 GAMMAs            1.2393   1.2406   1.2419   1.2432   1.2445   1.2459   1.2472   1.2486
 SON VEL,M/SEC     6646.0   6663.1   6680.0   6697.0   6713.9   6730.7   6747.5   6764.3

 TRANSPORT PROPERTIES (GASES ONLY)
   CONDUCTIVITY IN UNITS OF MILLIWATTS/(CM)(K)

 VISC,MILLIPOISE  0.64154  0.64100  0.64047  0.63995  0.63944  0.63894  0.63845  0.63797

  WITH EQUILIBRIUM REACTIONS

 Cp, KJ/(KG)(K)  104.2054 103.0622 101.9225 100.7867  99.6555  98.5292  97.4084  96.2936
 CONDUCTIVITY    110.2613 108.9822 107.7103 106.4461 105.1900 103.9424 102.7038 101.4745
 PRANDTL NUMBER    0.6063   0.6062   0.6061   0.6059   0.6058   0.6057   0.6055   0.6054

  WITH FROZEN REACTIONS

 Cp, KJ/(KG)(K)   20.5125  20.5160  20.5195  20.5228  20.5261  20.5293  20.5324  20.5354
 CONDUCTIVITY     18.4494  18.4487  18.4482  18.4480  18.4481  18.4484  18.4490  18.4498
 PRANDTL NUMBER    0.7133   0.7128   0.7124   0.7119   0.7115   0.7110   0.7105   0.7101

 MOLE FRACTIONS

 *H               0.87515  0.87743  0.87967  0.88186  0.88402  0.88614  0.88822  0.89026
 *H2              0.12485  0.12257  0.12033  0.11814  0.11598  0.11386  0.11178  0.10974

  * THERMODYNAMIC PROPERTIES FITTED TO 20000.K

 NOTE. WEIGHT FRACTION OF FUEL IN TOTAL FUELS AND OF OXIDANT IN TOTAL OXIDANTS









               THERMODYNAMIC EQUILIBRIUM PROPERTIES AT ASSIGNED

                           TEMPERATURE AND PRESSURE

 CASE =                

             REACTANT                    WT FRACTION      ENERGY      TEMP
                                          (SEE NOTE)     KJ/KG-MOL      K  
             H2                           1.0000000         0.000      0.000

 O/F=    0.00000  %FUEL=100.000000  R,EQ.RATIO= 0.000000  PHI,EQ.RATIO= 0.000000

 THERMODYNAMIC PROPERTIES

 P, BAR            4.9000   5.4000   5.4000   5.4000   5.4000   5.4000   5.4000   5.4000
 T, K             4940.00  4800.00  4810.00  4820.00  4830.00  4840.00  4850.00  4860.00
 RHO, KG/CU M    1.3320-2 1.5682-2 1.5613-2 1.5545-2 1.5478-2 1.5412-2 1.5347-2 1.5282-2
 H, KJ/KG        267181.1 249056.0 250191.6 251316.1 252429.5 253531.8 254622.9 255702.8
 U, KJ/KG        230394.0 214621.9 215605.6 216578.9 217541.7 218494.0 219435.8 220367.0
 G, KJ/KG       -476134.8-451909.1-453370.6-454834.5-456300.7-457769.2-459239.9-460712.9
 S, KJ/(KG)(K)   150.4688 146.0344 146.2707 146.5043 146.7350 146.9630 147.1882 147.4106

 M, (1/n)           1.117    1.159    1.156    1.154    1.151    1.149    1.146    1.144
 (dLV/dLP)t      -1.07834 -1.09637 -1.09539 -1.09441 -1.09343 -1.09244 -1.09146 -1.09047
 (dLV/dLT)p        1.8861   2.1215   2.1079   2.0943   2.0807   2.0671   2.0535   2.0400
 Cp, KJ/(KG)(K)   95.1852 114.1177 113.0086 111.8967 110.7825 109.6668 108.5503 107.4335
 GAMMAs            1.2500   1.2294   1.2305   1.2316   1.2328   1.2340   1.2352   1.2364
 SON VEL,M/SEC     6781.1   6506.3   6523.6   6540.9   6558.2   6575.4   6592.5   6609.7

 TRANSPORT PROPERTIES (GASES ONLY)
   CONDUCTIVITY IN UNITS OF MILLIWATTS/(CM)(K)

 VISC,MILLIPOISE  0.63750  0.65184  0.65125  0.65065  0.65007  0.64948  0.64891  0.64834

  WITH EQUILIBRIUM REACTIONS

 Cp, KJ/(KG)(K)   95.1852 114.1177 113.0086 111.8967 110.7825 109.6668 108.5503 107.4335
 CONDUCTIVITY    100.2549 122.4732 121.1844 119.8969 118.6114 117.3285 116.0488 114.7729
 PRANDTL NUMBER    0.6053   0.6074   0.6073   0.6072   0.6072   0.6071   0.6070   0.6069

  WITH FROZEN REACTIONS

 Cp, KJ/(KG)(K)   20.5383  20.4808  20.4851  20.4892  20.4933  20.4973  20.5012  20.5050
 CONDUCTIVITY     18.4509  18.6018  18.5991  18.5965  18.5941  18.5920  18.5900  18.5882
 PRANDTL NUMBER    0.7096   0.7177   0.7173   0.7169   0.7165   0.7160   0.7156   0.7152

 MOLE FRACTIONS

 *H               0.89227  0.85011  0.85278  0.85540  0.85797  0.86051  0.86300  0.86545
 *H2              0.10773  0.14989  0.14722  0.14460  0.14203  0.13949  0.13700  0.13455

  * THERMODYNAMIC PROPERTIES FITTED TO 20000.K

 NOTE. WEIGHT FRACTION OF FUEL IN TOTAL FUELS AND OF OXIDANT IN TOTAL OXIDANTS









               THERMODYNAMIC EQUILIBRIUM PROPERTIES AT ASSIGNED

                           TEMPERATURE AND PRESSURE

 CASE =                

             REACTANT                    WT FRACTION      ENERGY      TEMP
                                          (SEE NOTE)     KJ/KG-MOL      K  
             H2                           1.0000000         0.000      0.000

 O/F=    0.00000  %FUEL=100.000000  R,EQ.RATIO= 0.000000  PHI,EQ.RATIO= 0.000000

 THERMODYNAMIC PROPERTIES

 P, BAR            5.4000   5.4000   5.4000   5.4000   5.4000   5.4000   5.4000   5.4000
 T, K             4870.00  4880.00  4890.00  4900.00  4910.00  4920.00  4930.00  4940.00
 RHO, KG/CU M    1.5218-2 1.5155-2 1.5093-2 1.5032-2 1.4971-2 1.4912-2 1.4853-2 1.4794-2
 H, KJ/KG        256771.5 257829.1 258875.6 259910.9 260935.1 261948.3 262950.4 263941.5
 U, KJ/KG        221287.8 222198.1 223097.9 223987.2 224866.2 225734.7 226592.9 227440.8
 G, KJ/KG       -462188.1-463665.5-465145.1-466626.7-468110.5-469596.4-471084.3-472574.2
 S, KJ/(KG)(K)   147.6303 147.8473 148.0615 148.2730 148.4818 148.6879 148.8914 149.0922

 M, (1/n)           1.141    1.139    1.136    1.134    1.132    1.130    1.127    1.125
 (dLV/dLP)t      -1.08947 -1.08848 -1.08749 -1.08649 -1.08550 -1.08451 -1.08352 -1.08253
 (dLV/dLT)p        2.0265   2.0131   1.9997   1.9863   1.9730   1.9598   1.9467   1.9336
 Cp, KJ/(KG)(K)  106.3172 105.2019 104.0883 102.9768 101.8681 100.7627  99.6611  98.5638
 GAMMAs            1.2376   1.2388   1.2400   1.2413   1.2426   1.2439   1.2452   1.2465
 SON VEL,M/SEC     6626.7   6643.8   6660.8   6677.7   6694.7   6711.5   6728.4   6745.2

 TRANSPORT PROPERTIES (GASES ONLY)
   CONDUCTIVITY IN UNITS OF MILLIWATTS/(CM)(K)

 VISC,MILLIPOISE  0.64778  0.64723  0.64668  0.64614  0.64562  0.64510  0.64459  0.64409

  WITH EQUILIBRIUM REACTIONS

 Cp, KJ/(KG)(K)  106.3172 105.2019 104.0883 102.9768 101.8681 100.7627  99.6611  98.5638
 CONDUCTIVITY    113.5014 112.2349 110.9738 109.7187 108.4700 107.2283 105.9939 104.7673
 PRANDTL NUMBER    0.6068   0.6067   0.6066   0.6064   0.6063   0.6062   0.6061   0.6059

  WITH FROZEN REACTIONS

 Cp, KJ/(KG)(K)   20.5087  20.5123  20.5158  20.5193  20.5226  20.5259  20.5291  20.5323
 CONDUCTIVITY     18.5867  18.5854  18.5844  18.5835  18.5830  18.5826  18.5825  18.5827
 PRANDTL NUMBER    0.7148   0.7143   0.7139   0.7134   0.7130   0.7126   0.7121   0.7117

 MOLE FRACTIONS

 *H               0.86785  0.87022  0.87254  0.87483  0.87707  0.87928  0.88145  0.88358
 *H2              0.13214  0.12978  0.12745  0.12517  0.12292  0.12072  0.11855  0.11642

  * THERMODYNAMIC PROPERTIES FITTED TO 20000.K

 NOTE. WEIGHT FRACTION OF FUEL IN TOTAL FUELS AND OF OXIDANT IN TOTAL OXIDANTS









               THERMODYNAMIC EQUILIBRIUM PROPERTIES AT ASSIGNED

                           TEMPERATURE AND PRESSURE

 CASE =                

             REACTANT                    WT FRACTION      ENERGY      TEMP
                                          (SEE NOTE)     KJ/KG-MOL      K  
             H2                           1.0000000         0.000      0.000

 O/F=    0.00000  %FUEL=100.000000  R,EQ.RATIO= 0.000000  PHI,EQ.RATIO= 0.000000

 THERMODYNAMIC PROPERTIES

 P, BAR            6.0000   6.0000   6.0000   6.0000   6.0000   6.0000   6.0000   6.0000
 T, K             4800.00  4810.00  4820.00  4830.00  4840.00  4850.00  4860.00  4870.00
 RHO, KG/CU M    1.7606-2 1.7527-2 1.7449-2 1.7372-2 1.7296-2 1.7221-2 1.7147-2 1.7073-2
 H, KJ/KG        244920.6 246086.5 247241.8 248386.5 249520.6 250643.9 251756.5 252858.4
 U, KJ/KG        210841.8 211854.0 212856.1 213848.3 214830.3 215802.2 216764.1 217715.7
 G, KJ/KG       -448299.7-449745.1-451193.0-452643.2-454095.8-455550.7-457007.9-458467.4
 S, KJ/(KG)(K)   144.4209 144.6635 144.9035 145.1407 145.3753 145.6071 145.8363 146.0628

 M, (1/n)           1.171    1.168    1.165    1.163    1.160    1.157    1.155    1.152
 (dLV/dLP)t      -1.10050 -1.09957 -1.09863 -1.09769 -1.09674 -1.09578 -1.09482 -1.09386
 (dLV/dLT)p        2.1696   2.1564   2.1432   2.1299   2.1166   2.1033   2.0900   2.0768
 Cp, KJ/(KG)(K)  117.1168 116.0629 115.0035 113.9391 112.8705 111.7983 110.7233 109.6460
 GAMMAs            1.2268   1.2279   1.2289   1.2300   1.2312   1.2323   1.2334   1.2346
 SON VEL,M/SEC     6465.9   6483.3   6500.6   6517.9   6535.2   6552.4   6569.6   6586.8

 TRANSPORT PROPERTIES (GASES ONLY)
   CONDUCTIVITY IN UNITS OF MILLIWATTS/(CM)(K)

 VISC,MILLIPOISE  0.65939  0.65880  0.65820  0.65761  0.65702  0.65643  0.65585  0.65528

  WITH EQUILIBRIUM REACTIONS

 Cp, KJ/(KG)(K)  117.1168 116.0629 115.0035 113.9391 112.8705 111.7983 110.7233 109.6460
 CONDUCTIVITY    127.0884 125.8349 124.5798 123.3239 122.0678 120.8122 119.5577 118.3050
 PRANDTL NUMBER    0.6077   0.6076   0.6076   0.6076   0.6075   0.6075   0.6074   0.6073

  WITH FROZEN REACTIONS

 Cp, KJ/(KG)(K)   20.4710  20.4755  20.4799  20.4842  20.4884  20.4925  20.4965  20.5004
 CONDUCTIVITY     18.7612  18.7580  18.7548  18.7518  18.7490  18.7464  18.7439  18.7417
 PRANDTL NUMBER    0.7195   0.7191   0.7187   0.7184   0.7180   0.7176   0.7172   0.7168

 MOLE FRACTIONS

 *H               0.83812  0.84093  0.84370  0.84642  0.84909  0.85173  0.85432  0.85687
 *H2              0.16188  0.15907  0.15630  0.15358  0.15091  0.14827  0.14568  0.14313

  * THERMODYNAMIC PROPERTIES FITTED TO 20000.K

 NOTE. WEIGHT FRACTION OF FUEL IN TOTAL FUELS AND OF OXIDANT IN TOTAL OXIDANTS









               THERMODYNAMIC EQUILIBRIUM PROPERTIES AT ASSIGNED

                           TEMPERATURE AND PRESSURE

 CASE =                

             REACTANT                    WT FRACTION      ENERGY      TEMP
                                          (SEE NOTE)     KJ/KG-MOL      K  
             H2                           1.0000000         0.000      0.000

 O/F=    0.00000  %FUEL=100.000000  R,EQ.RATIO= 0.000000  PHI,EQ.RATIO= 0.000000

 THERMODYNAMIC PROPERTIES

 P, BAR            6.0000   6.0000   6.0000   6.0000   6.0000   6.0000   6.0000   6.7000
 T, K             4880.00  4890.00  4900.00  4910.00  4920.00  4930.00  4940.00  4800.00
 RHO, KG/CU M    1.7001-2 1.6929-2 1.6859-2 1.6789-2 1.6721-2 1.6653-2 1.6586-2 1.9884-2
 H, KJ/KG        253949.5 255029.7 256099.2 257157.9 258205.7 259242.8 260269.2 240456.7
 U, KJ/KG        218657.3 219588.6 220509.8 221420.8 222321.7 223212.5 224093.2 206761.6
 G, KJ/KG       -459929.2-461393.1-462859.3-464327.6-465798.1-467270.7-468745.4-444560.2
 S, KJ/(KG)(K)   146.2866 146.5077 146.7262 146.9421 147.1553 147.3658 147.5738 142.7119

 M, (1/n)           1.150    1.147    1.145    1.142    1.140    1.138    1.135    1.184
 (dLV/dLP)t      -1.09289 -1.09192 -1.09095 -1.08997 -1.08900 -1.08802 -1.08705 -1.10460
 (dLV/dLT)p        2.0635   2.0503   2.0371   2.0239   2.0108   1.9977   1.9847   2.2174
 Cp, KJ/(KG)(K)  108.5672 107.4874 106.4072 105.3273 104.2482 103.1704 102.0946 119.9172
 GAMMAs            1.2357   1.2369   1.2381   1.2393   1.2405   1.2417   1.2430   1.2243
 SON VEL,M/SEC     6603.9   6621.0   6638.0   6655.0   6671.9   6688.8   6705.7   6422.9

 TRANSPORT PROPERTIES (GASES ONLY)
   CONDUCTIVITY IN UNITS OF MILLIWATTS/(CM)(K)

 VISC,MILLIPOISE  0.65471  0.65414  0.65359  0.65304  0.65249  0.65196  0.65143  0.66734

  WITH EQUILIBRIUM REACTIONS

 Cp, KJ/(KG)(K)  108.5672 107.4874 106.4072 105.3273 104.2482 103.1704 102.0946 119.9172
 CONDUCTIVITY    117.0546 115.8071 114.5631 113.3232 112.0878 110.8574 109.6326 131.6793
 PRANDTL NUMBER    0.6072   0.6071   0.6071   0.6070   0.6069   0.6067   0.6066   0.6077

  WITH FROZEN REACTIONS

 Cp, KJ/(KG)(K)   20.5042  20.5079  20.5116  20.5152  20.5186  20.5220  20.5254  20.4605
 CONDUCTIVITY     18.7396  18.7377  18.7361  18.7346  18.7334  18.7324  18.7316  18.9321
 PRANDTL NUMBER    0.7164   0.7159   0.7155   0.7151   0.7147   0.7142   0.7138   0.7212

 MOLE FRACTIONS

 *H               0.85937  0.86184  0.86426  0.86664  0.86899  0.87129  0.87356  0.82490
 *H2              0.14063  0.13816  0.13574  0.13335  0.13101  0.12871  0.12644  0.17510

  * THERMODYNAMIC PROPERTIES FITTED TO 20000.K

 NOTE. WEIGHT FRACTION OF FUEL IN TOTAL FUELS AND OF OXIDANT IN TOTAL OXIDANTS









               THERMODYNAMIC EQUILIBRIUM PROPERTIES AT ASSIGNED

                           TEMPERATURE AND PRESSURE

 CASE =                

             REACTANT                    WT FRACTION      ENERGY      TEMP
                                          (SEE NOTE)     KJ/KG-MOL      K  
             H2                           1.0000000         0.000      0.000

 O/F=    0.00000  %FUEL=100.000000  R,EQ.RATIO= 0.000000  PHI,EQ.RATIO= 0.000000

 THERMODYNAMIC PROPERTIES

 P, BAR            6.7000   6.7000   6.7000   6.7000   6.7000   6.7000   6.7000   6.7000
 T, K             4810.00  4820.00  4830.00  4840.00  4850.00  4860.00  4870.00  4880.00
 RHO, KG/CU M    1.9793-2 1.9703-2 1.9614-2 1.9526-2 1.9439-2 1.9353-2 1.9268-2 1.9185-2
 H, KJ/KG        241651.0 242835.3 244009.7 245174.0 246328.2 247472.2 248606.0 249729.5
 U, KJ/KG        207800.4 208829.8 209849.8 210860.3 211861.2 212852.4 213834.0 214805.9
 G, KJ/KG       -445988.6-447419.4-448852.7-450288.4-451726.5-453167.0-454609.8-456054.9
 S, KJ/(KG)(K)   142.9604 143.2064 143.4498 143.6906 143.9288 144.1644 144.3975 144.6280

 M, (1/n)           1.181    1.179    1.176    1.173    1.170    1.167    1.164    1.162
 (dLV/dLP)t      -1.10373 -1.10284 -1.10195 -1.10104 -1.10013 -1.09921 -1.09829 -1.09736
 (dLV/dLT)p        2.2047   2.1919   2.1792   2.1663   2.1535   2.1406   2.1277   2.1147
 Cp, KJ/(KG)(K)  118.9313 117.9370 116.9351 115.9262 114.9110 113.8903 112.8646 111.8346
 GAMMAs            1.2253   1.2264   1.2274   1.2284   1.2295   1.2306   1.2317   1.2328
 SON VEL,M/SEC     6440.4   6457.8   6475.2   6492.5   6509.8   6527.0   6544.3   6561.4

 TRANSPORT PROPERTIES (GASES ONLY)
   CONDUCTIVITY IN UNITS OF MILLIWATTS/(CM)(K)

 VISC,MILLIPOISE  0.66675  0.66617  0.66558  0.66499  0.66441  0.66383  0.66325  0.66267

  WITH EQUILIBRIUM REACTIONS

 Cp, KJ/(KG)(K)  118.9313 117.9370 116.9351 115.9262 114.9110 113.8903 112.8646 111.8346
 CONDUCTIVITY    130.4748 129.2658 128.0530 126.8370 125.6187 124.3985 123.1773 121.9556
 PRANDTL NUMBER    0.6078   0.6078   0.6078   0.6078   0.6078   0.6078   0.6077   0.6077

  WITH FROZEN REACTIONS

 Cp, KJ/(KG)(K)   20.4652  20.4698  20.4743  20.4787  20.4830  20.4872  20.4914  20.4954
 CONDUCTIVITY     18.9284  18.9249  18.9215  18.9182  18.9150  18.9120  18.9091  18.9064
 PRANDTL NUMBER    0.7209   0.7205   0.7202   0.7198   0.7195   0.7191   0.7187   0.7184

 MOLE FRACTIONS

 *H               0.82785  0.83077  0.83364  0.83646  0.83924  0.84198  0.84468  0.84733
 *H2              0.17214  0.16923  0.16636  0.16354  0.16075  0.15801  0.15532  0.15266

  * THERMODYNAMIC PROPERTIES FITTED TO 20000.K

 NOTE. WEIGHT FRACTION OF FUEL IN TOTAL FUELS AND OF OXIDANT IN TOTAL OXIDANTS









               THERMODYNAMIC EQUILIBRIUM PROPERTIES AT ASSIGNED

                           TEMPERATURE AND PRESSURE

 CASE =                

             REACTANT                    WT FRACTION      ENERGY      TEMP
                                          (SEE NOTE)     KJ/KG-MOL      K  
             H2                           1.0000000         0.000      0.000

 O/F=    0.00000  %FUEL=100.000000  R,EQ.RATIO= 0.000000  PHI,EQ.RATIO= 0.000000

 THERMODYNAMIC PROPERTIES

 P, BAR            6.7000   6.7000   6.7000   6.7000   6.7000   6.7000   7.4000   7.4000
 T, K             4890.00  4900.00  4910.00  4920.00  4930.00  4940.00  4800.00  4810.00
 RHO, KG/CU M    1.9102-2 1.9021-2 1.8940-2 1.8860-2 1.8782-2 1.8704-2 2.2195-2 2.2091-2
 H, KJ/KG        250842.7 251945.5 253037.9 254120.0 255191.6 256252.8 236334.3 237550.8
 U, KJ/KG        215768.0 216720.4 217662.9 218595.7 219518.7 220431.9 202993.3 204053.2
 G, KJ/KG       -457502.4-458952.0-460404.0-461858.1-463314.4-464772.9-441229.4-442642.3
 S, KJ/(KG)(K)   144.8558 145.0811 145.3039 145.5240 145.7416 145.9566 141.1591 141.4123

 M, (1/n)           1.159    1.157    1.154    1.152    1.149    1.147    1.197    1.194
 (dLV/dLP)t      -1.09643 -1.09549 -1.09455 -1.09360 -1.09265 -1.09170 -1.10806 -1.10724
 (dLV/dLT)p        2.1018   2.0889   2.0759   2.0630   2.0501   2.0373   2.2576   2.2455
 Cp, KJ/(KG)(K)  110.8009 109.7643 108.7252 107.6844 106.6423 105.5996 122.1111 121.1940
 GAMMAs            1.2339   1.2350   1.2361   1.2373   1.2384   1.2396   1.2223   1.2232
 SON VEL,M/SEC     6578.6   6595.7   6612.7   6629.7   6646.7   6663.7   6383.7   6401.2

 TRANSPORT PROPERTIES (GASES ONLY)
   CONDUCTIVITY IN UNITS OF MILLIWATTS/(CM)(K)

 VISC,MILLIPOISE  0.66210  0.66153  0.66097  0.66041  0.65985  0.65931  0.67449  0.67392

  WITH EQUILIBRIUM REACTIONS

 Cp, KJ/(KG)(K)  110.8009 109.7643 108.7252 107.6844 106.6423 105.5996 122.1111 121.1940
 CONDUCTIVITY    120.7341 119.5133 118.2939 117.0764 115.8614 114.6495 135.5583 134.4082
 PRANDTL NUMBER    0.6076   0.6076   0.6075   0.6074   0.6073   0.6073   0.6076   0.6077

  WITH FROZEN REACTIONS

 Cp, KJ/(KG)(K)   20.4994  20.5032  20.5070  20.5107  20.5143  20.5178  20.4508  20.4557
 CONDUCTIVITY     18.9038  18.9015  18.8993  18.8973  18.8954  18.8938  19.0885  19.0847
 PRANDTL NUMBER    0.7180   0.7176   0.7172   0.7168   0.7164   0.7160   0.7226   0.7223

 MOLE FRACTIONS

 *H               0.84995  0.85252  0.85505  0.85753  0.85998  0.86239  0.81241  0.81550
 *H2              0.15005  0.14748  0.14495  0.14246  0.14002  0.13761  0.18759  0.18450

  * THERMODYNAMIC PROPERTIES FITTED TO 20000.K

 NOTE. WEIGHT FRACTION OF FUEL IN TOTAL FUELS AND OF OXIDANT IN TOTAL OXIDANTS









               THERMODYNAMIC EQUILIBRIUM PROPERTIES AT ASSIGNED

                           TEMPERATURE AND PRESSURE

 CASE =                

             REACTANT                    WT FRACTION      ENERGY      TEMP
                                          (SEE NOTE)     KJ/KG-MOL      K  
             H2                           1.0000000         0.000      0.000

 O/F=    0.00000  %FUEL=100.000000  R,EQ.RATIO= 0.000000  PHI,EQ.RATIO= 0.000000

 THERMODYNAMIC PROPERTIES

 P, BAR            7.4000   7.4000   7.4000   7.4000   7.4000   7.4000   7.4000   7.4000
 T, K             4820.00  4830.00  4840.00  4850.00  4860.00  4870.00  4880.00  4890.00
 RHO, KG/CU M    2.1989-2 2.1887-2 2.1787-2 2.1689-2 2.1591-2 2.1494-2 2.1399-2 2.1305-2
 H, KJ/KG        238758.1 239956.1 241144.7 242323.7 243493.2 244652.9 245803.0 246943.2
 U, KJ/KG        205104.4 206146.7 207180.0 208204.3 209219.5 210225.5 211222.3 212209.8
 G, KJ/KG       -444057.6-445475.5-446895.9-448318.7-449743.9-451171.5-452601.5-454033.8
 S, KJ/(KG)(K)   141.6630 141.9113 142.1571 142.4005 142.6414 142.8798 143.1157 143.3491

 M, (1/n)           1.191    1.188    1.185    1.182    1.179    1.176    1.173    1.171
 (dLV/dLP)t      -1.10641 -1.10557 -1.10472 -1.10386 -1.10299 -1.10211 -1.10122 -1.10033
 (dLV/dLT)p        2.2333   2.2211   2.2087   2.1964   2.1839   2.1715   2.1589   2.1464
 Cp, KJ/(KG)(K)  120.2664 119.3288 118.3820 117.4266 116.4633 115.4927 114.5155 113.5323
 GAMMAs            1.2242   1.2252   1.2262   1.2272   1.2282   1.2293   1.2303   1.2314
 SON VEL,M/SEC     6418.7   6436.1   6453.5   6470.8   6488.2   6505.4   6522.7   6539.8

 TRANSPORT PROPERTIES (GASES ONLY)
   CONDUCTIVITY IN UNITS OF MILLIWATTS/(CM)(K)

 VISC,MILLIPOISE  0.67335  0.67278  0.67221  0.67163  0.67106  0.67048  0.66991  0.66934

  WITH EQUILIBRIUM REACTIONS

 Cp, KJ/(KG)(K)  120.2664 119.3288 118.3820 117.4266 116.4633 115.4927 114.5155 113.5323
 CONDUCTIVITY    133.2509 132.0871 130.9176 129.7431 128.5642 127.3817 126.1961 125.0082
 PRANDTL NUMBER    0.6077   0.6078   0.6078   0.6079   0.6079   0.6079   0.6079   0.6079

  WITH FROZEN REACTIONS

 Cp, KJ/(KG)(K)   20.4605  20.4652  20.4698  20.4743  20.4787  20.4830  20.4872  20.4914
 CONDUCTIVITY     19.0810  19.0774  19.0739  19.0704  19.0670  19.0638  19.0607  19.0577
 PRANDTL NUMBER    0.7220   0.7217   0.7214   0.7211   0.7207   0.7204   0.7201   0.7197

 MOLE FRACTIONS

 *H               0.81855  0.82155  0.82450  0.82742  0.83029  0.83312  0.83590  0.83865
 *H2              0.18145  0.17845  0.17549  0.17258  0.16971  0.16688  0.16410  0.16135

  * THERMODYNAMIC PROPERTIES FITTED TO 20000.K

 NOTE. WEIGHT FRACTION OF FUEL IN TOTAL FUELS AND OF OXIDANT IN TOTAL OXIDANTS









               THERMODYNAMIC EQUILIBRIUM PROPERTIES AT ASSIGNED

                           TEMPERATURE AND PRESSURE

 CASE =                

             REACTANT                    WT FRACTION      ENERGY      TEMP
                                          (SEE NOTE)     KJ/KG-MOL      K  
             H2                           1.0000000         0.000      0.000

 O/F=    0.00000  %FUEL=100.000000  R,EQ.RATIO= 0.000000  PHI,EQ.RATIO= 0.000000

 THERMODYNAMIC PROPERTIES

 P, BAR            7.4000   7.4000   7.4000   7.4000   7.4000   8.2500   8.2500   8.2500
 T, K             4900.00  4910.00  4920.00  4930.00  4940.00  4800.00  4810.00  4820.00
 RHO, KG/CU M    2.1212-2 2.1120-2 2.1030-2 2.0940-2 2.0852-2 2.5042-2 2.4922-2 2.4805-2
 H, KJ/KG        248073.6 249194.1 250304.6 251405.1 252495.7 231728.2 232965.4 234194.1
 U, KJ/KG        213188.0 214156.9 215116.3 216066.3 217006.9 198783.1 199862.6 200934.1
 G, KJ/KG       -455468.4-456905.4-458344.6-459786.0-461229.7-437625.6-439021.4-440419.7
 S, KJ/(KG)(K)   143.5800 143.8084 144.0344 144.2578 144.4788 139.4487 139.7062 139.9614

 M, (1/n)           1.168    1.165    1.163    1.160    1.157    1.211    1.208    1.205
 (dLV/dLP)t      -1.09943 -1.09852 -1.09761 -1.09669 -1.09577 -1.11154 -1.11079 -1.11003
 (dLV/dLT)p        2.1338   2.1212   2.1086   2.0960   2.0834   2.2981   2.2867   2.2753
 Cp, KJ/(KG)(K)  112.5438 111.5505 110.5531 109.5522 108.5484 124.1286 123.2940 122.4466
 GAMMAs            1.2324   1.2335   1.2346   1.2357   1.2368   1.2202   1.2211   1.2221
 SON VEL,M/SEC     6557.0   6574.1   6591.2   6608.2   6625.2   6340.4   6357.9   6375.4

 TRANSPORT PROPERTIES (GASES ONLY)
   CONDUCTIVITY IN UNITS OF MILLIWATTS/(CM)(K)

 VISC,MILLIPOISE  0.66877  0.66821  0.66764  0.66708  0.66653  0.68225  0.68171  0.68117

  WITH EQUILIBRIUM REACTIONS

 Cp, KJ/(KG)(K)  112.5438 111.5505 110.5531 109.5522 108.5484 124.1286 123.2940 122.4466
 CONDUCTIVITY    123.8186 122.6278 121.4366 120.2454 119.0549 139.4826 138.4021 137.3117
 PRANDTL NUMBER    0.6079   0.6078   0.6078   0.6078   0.6077   0.6071   0.6073   0.6074

  WITH FROZEN REACTIONS

 Cp, KJ/(KG)(K)   20.4954  20.4994  20.5033  20.5070  20.5108  20.4399  20.4450  20.4500
 CONDUCTIVITY     19.0548  19.0521  19.0495  19.0471  19.0448  19.2615  19.2579  19.2542
 PRANDTL NUMBER    0.7193   0.7190   0.7186   0.7182   0.7178   0.7240   0.7237   0.7235

 MOLE FRACTIONS

 *H               0.84135  0.84401  0.84663  0.84921  0.85174  0.79815  0.80137  0.80456
 *H2              0.15865  0.15599  0.15337  0.15079  0.14825  0.20185  0.19862  0.19544

  * THERMODYNAMIC PROPERTIES FITTED TO 20000.K

 NOTE. WEIGHT FRACTION OF FUEL IN TOTAL FUELS AND OF OXIDANT IN TOTAL OXIDANTS









               THERMODYNAMIC EQUILIBRIUM PROPERTIES AT ASSIGNED

                           TEMPERATURE AND PRESSURE

 CASE =                

             REACTANT                    WT FRACTION      ENERGY      TEMP
                                          (SEE NOTE)     KJ/KG-MOL      K  
             H2                           1.0000000         0.000      0.000

 O/F=    0.00000  %FUEL=100.000000  R,EQ.RATIO= 0.000000  PHI,EQ.RATIO= 0.000000

 THERMODYNAMIC PROPERTIES

 P, BAR            8.2500   8.2500   8.2500   8.2500   8.2500   8.2500   8.2500   8.2500
 T, K             4830.00  4840.00  4850.00  4860.00  4870.00  4880.00  4890.00  4900.00
 RHO, KG/CU M    2.4688-2 2.4573-2 2.4460-2 2.4347-2 2.4236-2 2.4127-2 2.4018-2 2.3911-2
 H, KJ/KG        235414.3 236625.8 237828.5 239022.4 240207.3 241383.2 242549.9 243707.4
 U, KJ/KG        201997.5 203052.6 204099.4 205137.7 206167.4 207188.5 208201.0 209204.7
 G, KJ/KG       -441820.6-443224.0-444629.9-446038.2-447449.0-448862.3-450277.9-451695.9
 S, KJ/(KG)(K)   140.2143 140.4648 140.7131 140.9590 141.2025 141.4437 141.6826 141.9190

 M, (1/n)           1.202    1.199    1.196    1.193    1.190    1.187    1.184    1.181
 (dLV/dLP)t      -1.10926 -1.10847 -1.10768 -1.10687 -1.10605 -1.10522 -1.10438 -1.10353
 (dLV/dLT)p        2.2638   2.2521   2.2404   2.2286   2.2167   2.2047   2.1927   2.1806
 Cp, KJ/(KG)(K)  121.5871 120.7160 119.8341 118.9419 118.0400 117.1292 116.2099 115.2829
 GAMMAs            1.2230   1.2240   1.2249   1.2259   1.2269   1.2278   1.2288   1.2299
 SON VEL,M/SEC     6392.9   6410.3   6427.7   6445.0   6462.4   6479.6   6496.9   6514.1

 TRANSPORT PROPERTIES (GASES ONLY)
   CONDUCTIVITY IN UNITS OF MILLIWATTS/(CM)(K)

 VISC,MILLIPOISE  0.68063  0.68008  0.67953  0.67898  0.67842  0.67787  0.67731  0.67675

  WITH EQUILIBRIUM REACTIONS

 Cp, KJ/(KG)(K)  121.5871 120.7160 119.8341 118.9419 118.0400 117.1292 116.2099 115.2829
 CONDUCTIVITY    136.2120 135.1040 133.9881 132.8651 131.7357 130.6005 129.4603 128.3156
 PRANDTL NUMBER    0.6076   0.6077   0.6077   0.6078   0.6079   0.6079   0.6080   0.6080

  WITH FROZEN REACTIONS

 Cp, KJ/(KG)(K)   20.4549  20.4597  20.4644  20.4691  20.4736  20.4780  20.4824  20.4866
 CONDUCTIVITY     19.2506  19.2470  19.2434  19.2399  19.2364  19.2331  19.2298  19.2265
 PRANDTL NUMBER    0.7232   0.7229   0.7226   0.7224   0.7221   0.7217   0.7214   0.7211

 MOLE FRACTIONS

 *H               0.80770  0.81080  0.81385  0.81686  0.81983  0.82276  0.82565  0.82849
 *H2              0.19230  0.18920  0.18615  0.18313  0.18016  0.17724  0.17435  0.17151

  * THERMODYNAMIC PROPERTIES FITTED TO 20000.K

 NOTE. WEIGHT FRACTION OF FUEL IN TOTAL FUELS AND OF OXIDANT IN TOTAL OXIDANTS









               THERMODYNAMIC EQUILIBRIUM PROPERTIES AT ASSIGNED

                           TEMPERATURE AND PRESSURE

 CASE =                

             REACTANT                    WT FRACTION      ENERGY      TEMP
                                          (SEE NOTE)     KJ/KG-MOL      K  
             H2                           1.0000000         0.000      0.000

 O/F=    0.00000  %FUEL=100.000000  R,EQ.RATIO= 0.000000  PHI,EQ.RATIO= 0.000000

 THERMODYNAMIC PROPERTIES

 P, BAR            8.2500   8.2500   8.2500   8.2500   9.1000   9.1000   9.1000   9.1000
 T, K             4910.00  4920.00  4930.00  4940.00  4800.00  4810.00  4820.00  4830.00
 RHO, KG/CU M    2.3805-2 2.3701-2 2.3598-2 2.3496-2 2.7929-2 2.7794-2 2.7661-2 2.7529-2
 H, KJ/KG        244855.5 245994.3 247123.7 248243.5 227503.8 228755.9 230000.4 231237.1
 U, KJ/KG        210199.5 211185.5 212162.6 213130.6 194921.6 196015.6 197102.3 198181.5
 G, KJ/KG       -453116.3-454539.0-455964.0-457391.2-434412.7-435793.0-437175.9-438561.4
 S, KJ/(KG)(K)   142.1531 142.3848 142.6141 142.8410 137.8993 138.1598 138.4183 138.6746

 M, (1/n)           1.178    1.175    1.172    1.170    1.225    1.222    1.218    1.215
 (dLV/dLP)t      -1.10268 -1.10181 -1.10094 -1.10006 -1.11438 -1.11370 -1.11302 -1.11231
 (dLV/dLT)p        2.1685   2.1563   2.1441   2.1319   2.3311   2.3206   2.3099   2.2991
 Cp, KJ/(KG)(K)  114.3488 113.4081 112.4615 111.5095 125.5876 124.8325 124.0628 123.2792
 GAMMAs            1.2309   1.2319   1.2330   1.2340   1.2185   1.2194   1.2203   1.2212
 SON VEL,M/SEC     6531.3   6548.4   6565.5   6582.6   6301.0   6318.5   6336.0   6353.5

 TRANSPORT PROPERTIES (GASES ONLY)
   CONDUCTIVITY IN UNITS OF MILLIWATTS/(CM)(K)

 VISC,MILLIPOISE  0.67619  0.67563  0.67508  0.67452  0.68914  0.68865  0.68815  0.68764

  WITH EQUILIBRIUM REACTIONS

 Cp, KJ/(KG)(K)  114.3488 113.4081 112.4615 111.5095 125.5876 124.8325 124.0628 123.2792
 CONDUCTIVITY    127.1671 126.0154 124.8611 123.7050 142.7012 141.6918 140.6702 139.6370
 PRANDTL NUMBER    0.6080   0.6080   0.6080   0.6080   0.6065   0.6067   0.6069   0.6071

  WITH FROZEN REACTIONS

 Cp, KJ/(KG)(K)   20.4908  20.4949  20.4989  20.5028  20.4299  20.4352  20.4404  20.4455
 CONDUCTIVITY     19.2234  19.2204  19.2175  19.2148  19.4184  19.4151  19.4117  19.4082
 PRANDTL NUMBER    0.7208   0.7204   0.7201   0.7197   0.7250   0.7248   0.7246   0.7244

 MOLE FRACTIONS

 *H               0.83129  0.83405  0.83677  0.83945  0.78476  0.78810  0.79141  0.79467
 *H2              0.16871  0.16595  0.16323  0.16055  0.21524  0.21189  0.20859  0.20533

  * THERMODYNAMIC PROPERTIES FITTED TO 20000.K

 NOTE. WEIGHT FRACTION OF FUEL IN TOTAL FUELS AND OF OXIDANT IN TOTAL OXIDANTS









               THERMODYNAMIC EQUILIBRIUM PROPERTIES AT ASSIGNED

                           TEMPERATURE AND PRESSURE

 CASE =                

             REACTANT                    WT FRACTION      ENERGY      TEMP
                                          (SEE NOTE)     KJ/KG-MOL      K  
             H2                           1.0000000         0.000      0.000

 O/F=    0.00000  %FUEL=100.000000  R,EQ.RATIO= 0.000000  PHI,EQ.RATIO= 0.000000

 THERMODYNAMIC PROPERTIES

 P, BAR            9.1000   9.1000   9.1000   9.1000   9.1000   9.1000   9.1000   9.1000
 T, K             4840.00  4850.00  4860.00  4870.00  4880.00  4890.00  4900.00  4910.00
 RHO, KG/CU M    2.7399-2 2.7270-2 2.7143-2 2.7017-2 2.6893-2 2.6770-2 2.6648-2 2.6528-2
 H, KJ/KG        232465.9 233686.7 234899.3 236103.7 237299.6 238487.1 239666.0 240836.1
 U, KJ/KG        199253.1 200317.1 201373.2 202421.4 203461.6 204493.8 205517.7 206533.4
 G, KJ/KG       -439949.4-441339.9-442733.0-444128.5-445526.5-446927.0-448329.9-449735.1
 S, KJ/(KG)(K)   138.9288 139.1807 139.4305 139.6781 139.9234 140.1665 140.4073 140.6459

 M, (1/n)           1.212    1.208    1.205    1.202    1.199    1.196    1.193    1.190
 (dLV/dLP)t      -1.11159 -1.11086 -1.11012 -1.10936 -1.10859 -1.10781 -1.10701 -1.10621
 (dLV/dLT)p        2.2881   2.2771   2.2659   2.2546   2.2433   2.2318   2.2203   2.2087
 Cp, KJ/(KG)(K)  122.4822 121.6726 120.8508 120.0174 119.1731 118.3185 117.4541 116.5806
 GAMMAs            1.2221   1.2230   1.2239   1.2249   1.2258   1.2268   1.2277   1.2287
 SON VEL,M/SEC     6370.9   6388.4   6405.7   6423.1   6440.4   6457.7   6474.9   6492.1

 TRANSPORT PROPERTIES (GASES ONLY)
   CONDUCTIVITY IN UNITS OF MILLIWATTS/(CM)(K)

 VISC,MILLIPOISE  0.68713  0.68661  0.68608  0.68555  0.68502  0.68448  0.68395  0.68340

  WITH EQUILIBRIUM REACTIONS

 Cp, KJ/(KG)(K)  122.4822 121.6726 120.8508 120.0174 119.1731 118.3185 117.4541 116.5806
 CONDUCTIVITY    138.5931 137.5389 136.4754 135.4030 134.3225 133.2345 132.1397 131.0387
 PRANDTL NUMBER    0.6073   0.6074   0.6075   0.6077   0.6078   0.6079   0.6079   0.6080

  WITH FROZEN REACTIONS

 Cp, KJ/(KG)(K)   20.4505  20.4554  20.4602  20.4649  20.4695  20.4741  20.4785  20.4828
 CONDUCTIVITY     19.4048  19.4013  19.3979  19.3944  19.3910  19.3876  19.3843  19.3810
 PRANDTL NUMBER    0.7242   0.7239   0.7237   0.7234   0.7231   0.7228   0.7226   0.7223

 MOLE FRACTIONS

 *H               0.79789  0.80107  0.80421  0.80730  0.81035  0.81336  0.81633  0.81926
 *H2              0.20210  0.19893  0.19579  0.19270  0.18965  0.18664  0.18367  0.18074

  * THERMODYNAMIC PROPERTIES FITTED TO 20000.K

 NOTE. WEIGHT FRACTION OF FUEL IN TOTAL FUELS AND OF OXIDANT IN TOTAL OXIDANTS









               THERMODYNAMIC EQUILIBRIUM PROPERTIES AT ASSIGNED

                           TEMPERATURE AND PRESSURE

 CASE =                

             REACTANT                    WT FRACTION      ENERGY      TEMP
                                          (SEE NOTE)     KJ/KG-MOL      K  
             H2                           1.0000000         0.000      0.000

 O/F=    0.00000  %FUEL=100.000000  R,EQ.RATIO= 0.000000  PHI,EQ.RATIO= 0.000000

 THERMODYNAMIC PROPERTIES

 P, BAR            9.1000   9.1000   9.1000   10.000   10.000   10.000   10.000   10.000
 T, K             4920.00  4930.00  4940.00  4800.00  4810.00  4820.00  4830.00  4840.00
 RHO, KG/CU M    2.6410-2 2.6293-2 2.6177-2 3.1028-2 3.0876-2 3.0726-2 3.0578-2 3.0431-2
 H, KJ/KG        241997.5 243150.1 244293.7 223391.3 224654.6 225910.9 227160.3 228402.6
 U, KJ/KG        207540.7 208539.6 209530.0 191162.5 192267.4 193365.7 194457.2 195541.8
 G, KJ/KG       -451142.8-452552.8-453965.1-431356.5-432721.9-434089.8-435460.4-436833.6
 S, KJ/(KG)(K)   140.8822 141.1162 141.3479 136.4058 136.6687 136.9296 137.1886 137.4455

 M, (1/n)           1.187    1.184    1.182    1.238    1.235    1.231    1.228    1.225
 (dLV/dLP)t      -1.10540 -1.10458 -1.10374 -1.11682 -1.11622 -1.11561 -1.11497 -1.11433
 (dLV/dLT)p        2.1970   2.1853   2.1735   2.3595   2.3498   2.3399   2.3298   2.3197
 Cp, KJ/(KG)(K)  115.6984 114.8083 113.9108 126.6585 125.9829 125.2914 124.5846 123.8630
 GAMMAs            1.2297   1.2307   1.2317   1.2170   1.2179   1.2187   1.2196   1.2204
 SON VEL,M/SEC     6509.3   6526.4   6543.5   6262.8   6280.4   6297.9   6315.3   6332.8

 TRANSPORT PROPERTIES (GASES ONLY)
   CONDUCTIVITY IN UNITS OF MILLIWATTS/(CM)(K)

 VISC,MILLIPOISE  0.68286  0.68232  0.68177  0.69565  0.69520  0.69475  0.69428  0.69381

  WITH EQUILIBRIUM REACTIONS

 Cp, KJ/(KG)(K)  115.6984 114.8083 113.9108 126.6585 125.9829 125.2914 124.5846 123.8630
 CONDUCTIVITY    129.9322 128.8207 127.7050 145.4846 144.5500 143.6011 142.6388 141.6635
 PRANDTL NUMBER    0.6081   0.6081   0.6081   0.6056   0.6059   0.6062   0.6064   0.6066

  WITH FROZEN REACTIONS

 Cp, KJ/(KG)(K)   20.4871  20.4913  20.4953  20.4202  20.4257  20.4310  20.4363  20.4415
 CONDUCTIVITY     19.3778  19.3747  19.3716  19.5693  19.5664  19.5635  19.5604  19.5573
 PRANDTL NUMBER    0.7220   0.7216   0.7213   0.7259   0.7257   0.7256   0.7254   0.7252

 MOLE FRACTIONS

 *H               0.82214  0.82499  0.82779  0.77143  0.77489  0.77831  0.78168  0.78502
 *H2              0.17785  0.17501  0.17220  0.22857  0.22511  0.22169  0.21832  0.21498

  * THERMODYNAMIC PROPERTIES FITTED TO 20000.K

 NOTE. WEIGHT FRACTION OF FUEL IN TOTAL FUELS AND OF OXIDANT IN TOTAL OXIDANTS









               THERMODYNAMIC EQUILIBRIUM PROPERTIES AT ASSIGNED

                           TEMPERATURE AND PRESSURE

 CASE =                

             REACTANT                    WT FRACTION      ENERGY      TEMP
                                          (SEE NOTE)     KJ/KG-MOL      K  
             H2                           1.0000000         0.000      0.000

 O/F=    0.00000  %FUEL=100.000000  R,EQ.RATIO= 0.000000  PHI,EQ.RATIO= 0.000000

 THERMODYNAMIC PROPERTIES

 P, BAR            10.000   10.000   10.000   10.000   10.000   10.000   10.000   10.000
 T, K             4850.00  4860.00  4870.00  4880.00  4890.00  4900.00  4910.00  4920.00
 RHO, KG/CU M    3.0286-2 3.0143-2 3.0001-2 2.9861-2 2.9722-2 2.9586-2 2.9450-2 2.9316-2
 H, KJ/KG        229637.5 230865.1 232085.1 233297.3 234501.8 235698.4 236886.8 238067.2
 U, KJ/KG        196619.4 197689.9 198753.1 199808.9 200857.3 201898.0 202931.1 203956.4
 G, KJ/KG       -438209.3-439587.6-440968.4-442351.7-443737.4-445125.7-446516.3-447909.4
 S, KJ/(KG)(K)   137.7004 137.9532 138.2040 138.4527 138.6992 138.9437 139.1860 139.4261

 M, (1/n)           1.221    1.218    1.215    1.212    1.208    1.205    1.202    1.199
 (dLV/dLP)t      -1.11366 -1.11298 -1.11229 -1.11158 -1.11086 -1.11013 -1.10939 -1.10863
 (dLV/dLT)p        2.3093   2.2989   2.2883   2.2776   2.2667   2.2558   2.2448   2.2337
 Cp, KJ/(KG)(K)  123.1272 122.3777 121.6150 120.8398 120.0525 119.2537 118.4440 117.6239
 GAMMAs            1.2213   1.2222   1.2231   1.2240   1.2249   1.2258   1.2268   1.2277
 SON VEL,M/SEC     6350.2   6367.6   6385.0   6402.3   6419.6   6436.9   6454.1   6471.3

 TRANSPORT PROPERTIES (GASES ONLY)
   CONDUCTIVITY IN UNITS OF MILLIWATTS/(CM)(K)

 VISC,MILLIPOISE  0.69333  0.69284  0.69235  0.69185  0.69134  0.69083  0.69031  0.68979

  WITH EQUILIBRIUM REACTIONS

 Cp, KJ/(KG)(K)  123.1272 122.3777 121.6150 120.8398 120.0525 119.2537 118.4440 117.6239
 CONDUCTIVITY    140.6760 139.6769 138.6668 137.6465 136.6165 135.5775 134.5301 133.4750
 PRANDTL NUMBER    0.6068   0.6070   0.6072   0.6074   0.6075   0.6077   0.6078   0.6079

  WITH FROZEN REACTIONS

 Cp, KJ/(KG)(K)   20.4465  20.4515  20.4564  20.4612  20.4659  20.4705  20.4750  20.4794
 CONDUCTIVITY     19.5541  19.5509  19.5476  19.5444  19.5411  19.5378  19.5346  19.5313
 PRANDTL NUMBER    0.7250   0.7248   0.7245   0.7243   0.7241   0.7238   0.7235   0.7233

 MOLE FRACTIONS

 *H               0.78831  0.79156  0.79477  0.79794  0.80106  0.80415  0.80719  0.81019
 *H2              0.21169  0.20844  0.20523  0.20206  0.19894  0.19585  0.19281  0.18980

  * THERMODYNAMIC PROPERTIES FITTED TO 20000.K

 NOTE. WEIGHT FRACTION OF FUEL IN TOTAL FUELS AND OF OXIDANT IN TOTAL OXIDANTS









               THERMODYNAMIC EQUILIBRIUM PROPERTIES AT ASSIGNED

                           TEMPERATURE AND PRESSURE

 CASE =                

             REACTANT                    WT FRACTION      ENERGY      TEMP
                                          (SEE NOTE)     KJ/KG-MOL      K  
             H2                           1.0000000         0.000      0.000

 O/F=    0.00000  %FUEL=100.000000  R,EQ.RATIO= 0.000000  PHI,EQ.RATIO= 0.000000

 THERMODYNAMIC PROPERTIES

 P, BAR            10.000   10.000   11.000   11.000   11.000   11.000   11.000   11.000
 T, K             4930.00  4940.00  4800.00  4810.00  4820.00  4830.00  4840.00  4850.00
 RHO, KG/CU M    2.9184-2 2.9053-2 3.4517-2 3.4346-2 3.4177-2 3.4010-2 3.3845-2 3.3682-2
 H, KJ/KG        239239.3 240403.0 219199.2 220470.3 221735.4 222994.3 224246.8 225492.9
 U, KJ/KG        204973.8 205983.3 187330.6 188443.4 189550.4 190651.3 191746.1 192834.6
 G, KJ/KG       -449304.8-450702.7-428301.9-429652.2-431005.1-432360.6-433718.8-435079.5
 S, KJ/(KG)(K)   139.6641 139.8999 134.8961 135.1606 135.4233 135.6842 135.9433 136.2005

 M, (1/n)           1.196    1.193    1.252    1.249    1.245    1.242    1.238    1.235
 (dLV/dLP)t      -1.10786 -1.10708 -1.11898 -1.11846 -1.11793 -1.11737 -1.11680 -1.11621
 (dLV/dLT)p        2.2225   2.2113   2.3847   2.3758   2.3668   2.3576   2.3482   2.3387
 Cp, KJ/(KG)(K)  116.7941 115.9550 127.4050 126.8119 126.2018 125.5753 124.9327 124.2747
 GAMMAs            1.2286   1.2296   1.2156   1.2164   1.2172   1.2180   1.2189   1.2197
 SON VEL,M/SEC     6488.5   6505.6   6224.1   6241.6   6259.1   6276.6   6294.0   6311.4

 TRANSPORT PROPERTIES (GASES ONLY)
   CONDUCTIVITY IN UNITS OF MILLIWATTS/(CM)(K)

 VISC,MILLIPOISE  0.68927  0.68874  0.70206  0.70167  0.70127  0.70086  0.70044  0.70001

  WITH EQUILIBRIUM REACTIONS

 Cp, KJ/(KG)(K)  116.7941 115.9550 127.4050 126.8119 126.2018 125.5753 124.9327 124.2747
 CONDUCTIVITY    132.4128 131.3441 147.9663 147.1127 146.2431 145.3581 144.4584 143.5444
 PRANDTL NUMBER    0.6080   0.6080   0.6045   0.6048   0.6052   0.6055   0.6058   0.6060

  WITH FROZEN REACTIONS

 Cp, KJ/(KG)(K)   20.4838  20.4880  20.4103  20.4160  20.4215  20.4269  20.4322  20.4375
 CONDUCTIVITY     19.5281  19.5250  19.7210  19.7188  19.7165  19.7140  19.7114  19.7087
 PRANDTL NUMBER    0.7230   0.7227   0.7266   0.7265   0.7263   0.7262   0.7261   0.7259

 MOLE FRACTIONS

 *H               0.81316  0.81608  0.75755  0.76111  0.76463  0.76812  0.77156  0.77496
 *H2              0.18684  0.18392  0.24245  0.23889  0.23537  0.23188  0.22844  0.22504

  * THERMODYNAMIC PROPERTIES FITTED TO 20000.K

 NOTE. WEIGHT FRACTION OF FUEL IN TOTAL FUELS AND OF OXIDANT IN TOTAL OXIDANTS









               THERMODYNAMIC EQUILIBRIUM PROPERTIES AT ASSIGNED

                           TEMPERATURE AND PRESSURE

 CASE =                

             REACTANT                    WT FRACTION      ENERGY      TEMP
                                          (SEE NOTE)     KJ/KG-MOL      K  
             H2                           1.0000000         0.000      0.000

 O/F=    0.00000  %FUEL=100.000000  R,EQ.RATIO= 0.000000  PHI,EQ.RATIO= 0.000000

 THERMODYNAMIC PROPERTIES

 P, BAR            11.000   11.000   11.000   11.000   11.000   11.000   11.000   11.000
 T, K             4860.00  4870.00  4880.00  4890.00  4900.00  4910.00  4920.00  4930.00
 RHO, KG/CU M    3.3521-2 3.3361-2 3.3203-2 3.3047-2 3.2892-2 3.2739-2 3.2588-2 3.2439-2
 H, KJ/KG        226732.3 227964.9 229190.5 230409.1 231620.4 232824.4 234020.9 235209.9
 U, KJ/KG        193916.6 194992.0 196060.8 197122.7 198177.7 199225.6 200266.4 201299.9
 G, KJ/KG       -436442.8-437808.6-439177.0-440547.8-441921.1-443297.0-444675.2-446055.9
 S, KJ/(KG)(K)   136.4558 136.7091 136.9605 137.2100 137.4575 137.7029 137.9464 138.1878

 M, (1/n)           1.231    1.228    1.225    1.221    1.218    1.215    1.212    1.209
 (dLV/dLP)t      -1.11560 -1.11498 -1.11434 -1.11369 -1.11303 -1.11235 -1.11165 -1.11095
 (dLV/dLT)p        2.3290   2.3191   2.3092   2.2991   2.2888   2.2785   2.2680   2.2575
 Cp, KJ/(KG)(K)  123.6016 122.9140 122.2124 121.4973 120.7692 120.0286 119.2761 118.5122
 GAMMAs            1.2206   1.2214   1.2223   1.2232   1.2240   1.2249   1.2258   1.2267
 SON VEL,M/SEC     6328.8   6346.2   6363.5   6380.8   6398.1   6415.3   6432.5   6449.7

 TRANSPORT PROPERTIES (GASES ONLY)
   CONDUCTIVITY IN UNITS OF MILLIWATTS/(CM)(K)

 VISC,MILLIPOISE  0.69956  0.69911  0.69865  0.69819  0.69771  0.69723  0.69674  0.69625

  WITH EQUILIBRIUM REACTIONS

 Cp, KJ/(KG)(K)  123.6016 122.9140 122.2124 121.4973 120.7692 120.0286 119.2761 118.5122
 CONDUCTIVITY    142.6169 141.6765 140.7238 139.7594 138.7840 137.7980 136.8023 135.7973
 PRANDTL NUMBER    0.6063   0.6065   0.6067   0.6070   0.6071   0.6073   0.6075   0.6076

  WITH FROZEN REACTIONS

 Cp, KJ/(KG)(K)   20.4426  20.4477  20.4526  20.4575  20.4623  20.4670  20.4716  20.4761
 CONDUCTIVITY     19.7059  19.7031  19.7001  19.6971  19.6941  19.6910  19.6879  19.6848
 PRANDTL NUMBER    0.7257   0.7255   0.7253   0.7251   0.7249   0.7247   0.7245   0.7242

 MOLE FRACTIONS

 *H               0.77832  0.78164  0.78492  0.78816  0.79136  0.79452  0.79764  0.80072
 *H2              0.22168  0.21836  0.21508  0.21184  0.20864  0.20548  0.20236  0.19928

  * THERMODYNAMIC PROPERTIES FITTED TO 20000.K

 NOTE. WEIGHT FRACTION OF FUEL IN TOTAL FUELS AND OF OXIDANT IN TOTAL OXIDANTS









               THERMODYNAMIC EQUILIBRIUM PROPERTIES AT ASSIGNED

                           TEMPERATURE AND PRESSURE

 CASE =                

             REACTANT                    WT FRACTION      ENERGY      TEMP
                                          (SEE NOTE)     KJ/KG-MOL      K  
             H2                           1.0000000         0.000      0.000

 O/F=    0.00000  %FUEL=100.000000  R,EQ.RATIO= 0.000000  PHI,EQ.RATIO= 0.000000

 THERMODYNAMIC PROPERTIES

 P, BAR            11.000
 T, K             4940.00
 RHO, KG/CU M    3.2291-2
 H, KJ/KG        236391.1
 U, KJ/KG        202326.1
 G, KJ/KG       -447438.9
 S, KJ/(KG)(K)   138.4271

 M, (1/n)           1.206
 (dLV/dLP)t      -1.11023
 (dLV/dLT)p        2.2468
 Cp, KJ/(KG)(K)  117.7373
 GAMMAs            1.2277
 SON VEL,M/SEC     6466.9

 TRANSPORT PROPERTIES (GASES ONLY)
   CONDUCTIVITY IN UNITS OF MILLIWATTS/(CM)(K)

 VISC,MILLIPOISE  0.69575

  WITH EQUILIBRIUM REACTIONS

 Cp, KJ/(KG)(K)  117.7373
 CONDUCTIVITY    134.7837
 PRANDTL NUMBER    0.6078

  WITH FROZEN REACTIONS

 Cp, KJ/(KG)(K)   20.4805
 CONDUCTIVITY     19.6818
 PRANDTL NUMBER    0.7240

 MOLE FRACTIONS

 *H               0.80375
 *H2              0.19624

  * THERMODYNAMIC PROPERTIES FITTED TO 20000.K

 NOTE. WEIGHT FRACTION OF FUEL IN TOTAL FUELS AND OF OXIDANT IN TOTAL OXIDANTS



  
