
 *******************************************************************************

         NASA-GLENN CHEMICAL EQUILIBRIUM PROGRAM CEA2, MAY 21, 2004
                   BY  BONNIE MCBRIDE AND SANFORD GORDON
      REFS: NASA RP-1311, PART I, 1994 AND NASA RP-1311, PART II, 1996

 *******************************************************************************



  prob tp ions
  p,bar= 2.5,2.8,3.1,3.5,3.9,4.4,4.9,5.4,6.0,6.7,7.4,8.25,9.1,10.0,11.0
  t,k= 5700,5710,5720,5730,5740,5750,5760,5770,5780,5790,5800,5810,5820,5830,5840
  
  reac
  na H2                wt%=100.0000
  
  output short
  output siunits
  output transport
  
 end





               THERMODYNAMIC EQUILIBRIUM PROPERTIES AT ASSIGNED

                           TEMPERATURE AND PRESSURE

 CASE =                

             REACTANT                    WT FRACTION      ENERGY      TEMP
                                          (SEE NOTE)     KJ/KG-MOL      K  
             H2                           1.0000000         0.000      0.000

 O/F=    0.00000  %FUEL=100.000000  R,EQ.RATIO= 0.000000  PHI,EQ.RATIO= 0.000000

 THERMODYNAMIC PROPERTIES

 P, BAR            2.5000   2.5000   2.5000   2.5000   2.5000   2.5000   2.5000   2.5000
 T, K             5700.00  5710.00  5720.00  5730.00  5740.00  5750.00  5760.00  5770.00
 RHO, KG/CU M    5.3957-3 5.3849-3 5.3742-3 5.3636-3 5.3530-3 5.3425-3 5.3321-3 5.3217-3
 H, KJ/KG        320970.9 321287.6 321602.3 321914.9 322225.6 322534.3 322841.1 323146.0
 U, KJ/KG        274637.4 274861.6 275083.9 275304.3 275523.0 275739.8 275954.9 276168.3
 G, KJ/KG       -625521.1-627181.8-628843.2-630505.1-632167.5-633830.5-635494.0-637158.0
 S, KJ/(KG)(K)   166.0512 166.1067 166.1618 166.2164 166.2706 166.3243 166.3776 166.4305

 M, (1/n)           1.023    1.023    1.022    1.022    1.022    1.022    1.021    1.021
 (dLV/dLP)t      -1.01419 -1.01396 -1.01374 -1.01353 -1.01331 -1.01311 -1.01290 -1.01270
 (dLV/dLT)p        1.1393   1.1369   1.1345   1.1322   1.1299   1.1276   1.1254   1.1233
 Cp, KJ/(KG)(K)   31.7784  31.5690  31.3641  31.1635  30.9672  30.7750  30.5869  30.4028
 GAMMAs            1.4660   1.4683   1.4706   1.4729   1.4752   1.4774   1.4797   1.4819
 SON VEL,M/SEC     8241.5   8256.3   8271.0   8285.7   8300.2   8314.8   8329.2   8343.6

 TRANSPORT PROPERTIES (GASES ONLY)
   CONDUCTIVITY IN UNITS OF MILLIWATTS/(CM)(K)

 VISC,MILLIPOISE  0.62405  0.62471  0.62538  0.62605  0.62672  0.62741  0.62809  0.62878

  WITH EQUILIBRIUM REACTIONS

 Cp, KJ/(KG)(K)   31.7783  31.5690  31.3641  31.1635  30.9672  30.7750  30.5869  30.4028
 CONDUCTIVITY     31.7165  31.5169  31.3217  31.1310  30.9447  30.7626  30.5847  30.4110
 PRANDTL NUMBER    0.6253   0.6257   0.6262   0.6267   0.6272   0.6277   0.6281   0.6286

  WITH FROZEN REACTIONS

 Cp, KJ/(KG)(K)   20.6249  20.6250  20.6251  20.6253  20.6254  20.6255  20.6256  20.6257
 CONDUCTIVITY     19.0697  19.0938  19.1179  19.1422  19.1666  19.1911  19.2156  19.2403
 PRANDTL NUMBER    0.6749   0.6748   0.6747   0.6746   0.6744   0.6743   0.6742   0.6741

 MOLE FRACTIONS

 *e-              0.00002  0.00002  0.00002  0.00002  0.00002  0.00002  0.00002  0.00002
 *H               0.98515  0.98539  0.98563  0.98586  0.98609  0.98632  0.98654  0.98676
 *H+              0.00002  0.00002  0.00002  0.00002  0.00002  0.00002  0.00002  0.00002
 *H2              0.01482  0.01457  0.01433  0.01410  0.01387  0.01364  0.01342  0.01320

  * THERMODYNAMIC PROPERTIES FITTED TO 20000.K

 NOTE. WEIGHT FRACTION OF FUEL IN TOTAL FUELS AND OF OXIDANT IN TOTAL OXIDANTS









               THERMODYNAMIC EQUILIBRIUM PROPERTIES AT ASSIGNED

                           TEMPERATURE AND PRESSURE

 CASE =                

             REACTANT                    WT FRACTION      ENERGY      TEMP
                                          (SEE NOTE)     KJ/KG-MOL      K  
             H2                           1.0000000         0.000      0.000

 O/F=    0.00000  %FUEL=100.000000  R,EQ.RATIO= 0.000000  PHI,EQ.RATIO= 0.000000

 THERMODYNAMIC PROPERTIES

 P, BAR            2.5000   2.5000   2.5000   2.5000   2.5000   2.5000   2.5000   2.8000
 T, K             5780.00  5790.00  5800.00  5810.00  5820.00  5830.00  5840.00  5700.00
 RHO, KG/CU M    5.3113-3 5.3011-3 5.2909-3 5.2807-3 5.2706-3 5.2605-3 5.2505-3 6.0534-3
 H, KJ/KG        323449.1 323750.5 324050.1 324348.0 324644.2 324938.8 325231.7 320200.3
 U, KJ/KG        276380.1 276590.2 276798.7 277005.7 277211.1 277415.0 277617.5 273945.2
 G, KJ/KG       -638822.6-640487.7-642153.3-643819.4-645486.0-647153.2-648820.8-620274.5
 S, KJ/(KG)(K)   166.4830 166.5351 166.5868 166.6381 166.6890 166.7396 166.7898 164.9956

 M, (1/n)           1.021    1.021    1.021    1.020    1.020    1.020    1.020    1.025
 (dLV/dLP)t      -1.01250 -1.01231 -1.01212 -1.01193 -1.01175 -1.01157 -1.01139 -1.01575
 (dLV/dLT)p        1.1212   1.1191   1.1170   1.1151   1.1131   1.1112   1.1093   1.1547
 Cp, KJ/(KG)(K)   30.2225  30.0461  29.8734  29.7044  29.5389  29.3769  29.2184  32.9779
 GAMMAs            1.4841   1.4863   1.4885   1.4906   1.4928   1.4949   1.4970   1.4542
 SON VEL,M/SEC     8358.0   8372.2   8386.4   8400.6   8414.6   8428.6   8442.6   8201.4

 TRANSPORT PROPERTIES (GASES ONLY)
   CONDUCTIVITY IN UNITS OF MILLIWATTS/(CM)(K)

 VISC,MILLIPOISE  0.62948  0.63018  0.63089  0.63160  0.63231  0.63303  0.63375  0.62612

  WITH EQUILIBRIUM REACTIONS

 Cp, KJ/(KG)(K)   30.2225  30.0461  29.8734  29.7044  29.5389  29.3769  29.2184  32.9779
 CONDUCTIVITY     30.2412  30.0754  29.9135  29.7553  29.6008  29.4499  29.3025  33.1484
 PRANDTL NUMBER    0.6291   0.6296   0.6300   0.6305   0.6310   0.6315   0.6319   0.6229

  WITH FROZEN REACTIONS

 Cp, KJ/(KG)(K)   20.6257  20.6258  20.6259  20.6260  20.6261  20.6261  20.6262  20.6251
 CONDUCTIVITY     19.2651  19.2899  19.3148  19.3398  19.3649  19.3901  19.4153  19.1075
 PRANDTL NUMBER    0.6739   0.6738   0.6737   0.6736   0.6735   0.6734   0.6733   0.6759

 MOLE FRACTIONS

 *e-              0.00002  0.00002  0.00002  0.00002  0.00002  0.00002  0.00003  0.00002
 *H               0.98697  0.98718  0.98738  0.98758  0.98778  0.98797  0.98816  0.98343
 *H+              0.00002  0.00002  0.00002  0.00002  0.00002  0.00002  0.00003  0.00002
 *H2              0.01299  0.01278  0.01257  0.01237  0.01217  0.01198  0.01179  0.01654

  * THERMODYNAMIC PROPERTIES FITTED TO 20000.K

 NOTE. WEIGHT FRACTION OF FUEL IN TOTAL FUELS AND OF OXIDANT IN TOTAL OXIDANTS









               THERMODYNAMIC EQUILIBRIUM PROPERTIES AT ASSIGNED

                           TEMPERATURE AND PRESSURE

 CASE =                

             REACTANT                    WT FRACTION      ENERGY      TEMP
                                          (SEE NOTE)     KJ/KG-MOL      K  
             H2                           1.0000000         0.000      0.000

 O/F=    0.00000  %FUEL=100.000000  R,EQ.RATIO= 0.000000  PHI,EQ.RATIO= 0.000000

 THERMODYNAMIC PROPERTIES

 P, BAR            2.8000   2.8000   2.8000   2.8000   2.8000   2.8000   2.8000   2.8000
 T, K             5710.00  5720.00  5730.00  5740.00  5750.00  5760.00  5770.00  5780.00
 RHO, KG/CU M    6.0412-3 6.0290-3 6.0169-3 6.0049-3 5.9930-3 5.9811-3 5.9693-3 5.9576-3
 H, KJ/KG        320528.9 320855.3 321179.4 321501.3 321821.1 322138.8 322454.4 322768.1
 U, KJ/KG        274180.3 274413.2 274644.1 274873.0 275099.9 275324.9 275548.0 275769.3
 G, KJ/KG       -621924.7-623575.5-625226.9-626878.9-628531.4-630184.5-631838.1-633492.2
 S, KJ/(KG)(K)   165.0532 165.1103 165.1669 165.2230 165.2787 165.3339 165.3886 165.4430

 M, (1/n)           1.024    1.024    1.024    1.024    1.023    1.023    1.023    1.023
 (dLV/dLP)t      -1.01550 -1.01526 -1.01502 -1.01479 -1.01456 -1.01433 -1.01411 -1.01390
 (dLV/dLT)p        1.1520   1.1494   1.1468   1.1442   1.1418   1.1393   1.1370   1.1346
 Cp, KJ/(KG)(K)   32.7476  32.5220  32.3012  32.0849  31.8732  31.6659  31.4629  31.2641
 GAMMAs            1.4565   1.4589   1.4612   1.4635   1.4658   1.4681   1.4703   1.4726
 SON VEL,M/SEC     8216.3   8231.2   8246.0   8260.8   8275.5   8290.1   8304.7   8319.2

 TRANSPORT PROPERTIES (GASES ONLY)
   CONDUCTIVITY IN UNITS OF MILLIWATTS/(CM)(K)

 VISC,MILLIPOISE  0.62676  0.62740  0.62804  0.62869  0.62935  0.63001  0.63067  0.63135

  WITH EQUILIBRIUM REACTIONS

 Cp, KJ/(KG)(K)   32.7476  32.5220  32.3012  32.0849  31.8732  31.6659  31.4629  31.2641
 CONDUCTIVITY     32.9254  32.7072  32.4940  32.2855  32.0816  31.8823  31.6875  31.4971
 PRANDTL NUMBER    0.6234   0.6238   0.6243   0.6248   0.6253   0.6257   0.6262   0.6267

  WITH FROZEN REACTIONS

 Cp, KJ/(KG)(K)   20.6253  20.6254  20.6255  20.6256  20.6257  20.6258  20.6259  20.6260
 CONDUCTIVITY     19.1311  19.1548  19.1785  19.2024  19.2264  19.2505  19.2747  19.2990
 PRANDTL NUMBER    0.6757   0.6756   0.6754   0.6753   0.6752   0.6750   0.6749   0.6748

 MOLE FRACTIONS

 *e-              0.00002  0.00002  0.00002  0.00002  0.00002  0.00002  0.00002  0.00002
 *H               0.98370  0.98397  0.98423  0.98448  0.98473  0.98498  0.98522  0.98546
 *H+              0.00002  0.00002  0.00002  0.00002  0.00002  0.00002  0.00002  0.00002
 *H2              0.01627  0.01600  0.01574  0.01548  0.01523  0.01498  0.01474  0.01450

  * THERMODYNAMIC PROPERTIES FITTED TO 20000.K

 NOTE. WEIGHT FRACTION OF FUEL IN TOTAL FUELS AND OF OXIDANT IN TOTAL OXIDANTS









               THERMODYNAMIC EQUILIBRIUM PROPERTIES AT ASSIGNED

                           TEMPERATURE AND PRESSURE

 CASE =                

             REACTANT                    WT FRACTION      ENERGY      TEMP
                                          (SEE NOTE)     KJ/KG-MOL      K  
             H2                           1.0000000         0.000      0.000

 O/F=    0.00000  %FUEL=100.000000  R,EQ.RATIO= 0.000000  PHI,EQ.RATIO= 0.000000

 THERMODYNAMIC PROPERTIES

 P, BAR            2.8000   2.8000   2.8000   2.8000   2.8000   2.8000   3.1000   3.1000
 T, K             5790.00  5800.00  5810.00  5820.00  5830.00  5840.00  5700.00  5710.00
 RHO, KG/CU M    5.9459-3 5.9343-3 5.9228-3 5.9114-3 5.8999-3 5.8886-3 6.7132-3 6.6995-3
 H, KJ/KG        323079.7 323389.5 323697.3 324003.3 324307.5 324609.9 319437.8 319778.1
 U, KJ/KG        275988.8 276206.5 276422.5 276636.8 276849.5 277060.5 273260.4 273506.0
 G, KJ/KG       -635146.9-636802.2-638457.9-640114.2-641771.0-643428.4-615570.4-617211.1
 S, KJ/(KG)(K)   165.4968 165.5503 165.6033 165.6559 165.7082 165.7600 164.0365 164.0962

 M, (1/n)           1.022    1.022    1.022    1.022    1.021    1.021    1.026    1.026
 (dLV/dLP)t      -1.01368 -1.01347 -1.01327 -1.01306 -1.01286 -1.01267 -1.01729 -1.01702
 (dLV/dLT)p        1.1323   1.1301   1.1279   1.1257   1.1236   1.1215   1.1697   1.1668
 Cp, KJ/(KG)(K)   31.0695  30.8789  30.6923  30.5096  30.3307  30.1555  34.1530  33.9025
 GAMMAs            1.4748   1.4770   1.4792   1.4814   1.4836   1.4857   1.4436   1.4459
 SON VEL,M/SEC     8333.7   8348.1   8362.5   8376.8   8391.0   8405.1   8164.6   8179.6

 TRANSPORT PROPERTIES (GASES ONLY)
   CONDUCTIVITY IN UNITS OF MILLIWATTS/(CM)(K)

 VISC,MILLIPOISE  0.63202  0.63270  0.63339  0.63408  0.63477  0.63547  0.62817  0.62878

  WITH EQUILIBRIUM REACTIONS

 Cp, KJ/(KG)(K)   31.0695  30.8789  30.6923  30.5096  30.3307  30.1555  34.1530  33.9025
 CONDUCTIVITY     31.3109  31.1290  30.9511  30.7773  30.6075  30.4415  34.5560  34.3103
 PRANDTL NUMBER    0.6271   0.6276   0.6281   0.6286   0.6290   0.6295   0.6208   0.6213

  WITH FROZEN REACTIONS

 Cp, KJ/(KG)(K)   20.6261  20.6262  20.6263  20.6264  20.6264  20.6265  20.6253  20.6255
 CONDUCTIVITY     19.3234  19.3478  19.3724  19.3971  19.4218  19.4466  19.1449  19.1680
 PRANDTL NUMBER    0.6746   0.6745   0.6744   0.6743   0.6741   0.6740   0.6767   0.6766

 MOLE FRACTIONS

 *e-              0.00002  0.00002  0.00002  0.00002  0.00002  0.00002  0.00002  0.00002
 *H               0.98569  0.98592  0.98614  0.98636  0.98658  0.98679  0.98172  0.98202
 *H+              0.00002  0.00002  0.00002  0.00002  0.00002  0.00002  0.00002  0.00002
 *H2              0.01427  0.01404  0.01381  0.01359  0.01338  0.01316  0.01825  0.01795

  * THERMODYNAMIC PROPERTIES FITTED TO 20000.K

 NOTE. WEIGHT FRACTION OF FUEL IN TOTAL FUELS AND OF OXIDANT IN TOTAL OXIDANTS









               THERMODYNAMIC EQUILIBRIUM PROPERTIES AT ASSIGNED

                           TEMPERATURE AND PRESSURE

 CASE =                

             REACTANT                    WT FRACTION      ENERGY      TEMP
                                          (SEE NOTE)     KJ/KG-MOL      K  
             H2                           1.0000000         0.000      0.000

 O/F=    0.00000  %FUEL=100.000000  R,EQ.RATIO= 0.000000  PHI,EQ.RATIO= 0.000000

 THERMODYNAMIC PROPERTIES

 P, BAR            3.1000   3.1000   3.1000   3.1000   3.1000   3.1000   3.1000   3.1000
 T, K             5720.00  5730.00  5740.00  5750.00  5760.00  5770.00  5780.00  5790.00
 RHO, KG/CU M    6.6859-3 6.6723-3 6.6588-3 6.6454-3 6.6321-3 6.6189-3 6.6057-3 6.5926-3
 H, KJ/KG        320115.9 320451.2 320784.2 321114.9 321443.3 321769.4 322093.4 322415.2
 U, KJ/KG        273749.3 273990.5 274229.4 274466.2 274700.9 274933.6 275164.2 275392.9
 G, KJ/KG       -618852.3-620494.2-622136.6-623779.6-625423.2-627067.3-628712.1-630357.3
 S, KJ/(KG)(K)   164.1553 164.2139 164.2719 164.3295 164.3865 164.4431 164.4992 164.5548

 M, (1/n)           1.026    1.025    1.025    1.025    1.025    1.024    1.024    1.024
 (dLV/dLP)t      -1.01676 -1.01650 -1.01624 -1.01599 -1.01575 -1.01550 -1.01527 -1.01503
 (dLV/dLT)p        1.1639   1.1611   1.1584   1.1557   1.1530   1.1504   1.1479   1.1454
 Cp, KJ/(KG)(K)   33.6572  33.4169  33.1815  32.9509  32.7251  32.5039  32.2873  32.0751
 GAMMAs            1.4483   1.4506   1.4530   1.4553   1.4576   1.4599   1.4621   1.4644
 SON VEL,M/SEC     8194.6   8209.6   8224.5   8239.3   8254.1   8268.8   8283.5   8298.2

 TRANSPORT PROPERTIES (GASES ONLY)
   CONDUCTIVITY IN UNITS OF MILLIWATTS/(CM)(K)

 VISC,MILLIPOISE  0.62939  0.63001  0.63064  0.63127  0.63190  0.63254  0.63319  0.63384

  WITH EQUILIBRIUM REACTIONS

 Cp, KJ/(KG)(K)   33.6572  33.4169  33.1815  32.9509  32.7251  32.5039  32.2873  32.0751
 CONDUCTIVITY     34.0700  33.8349  33.6049  33.3800  33.1599  32.9447  32.7342  32.5283
 PRANDTL NUMBER    0.6218   0.6222   0.6227   0.6232   0.6236   0.6241   0.6245   0.6250

  WITH FROZEN REACTIONS

 Cp, KJ/(KG)(K)   20.6256  20.6257  20.6259  20.6260  20.6261  20.6262  20.6263  20.6264
 CONDUCTIVITY     19.1912  19.2145  19.2379  19.2614  19.2851  19.3088  19.3326  19.3566
 PRANDTL NUMBER    0.6764   0.6763   0.6761   0.6760   0.6758   0.6757   0.6756   0.6754

 MOLE FRACTIONS

 *e-              0.00002  0.00002  0.00002  0.00002  0.00002  0.00002  0.00002  0.00002
 *H               0.98231  0.98260  0.98288  0.98316  0.98343  0.98370  0.98396  0.98421
 *H+              0.00002  0.00002  0.00002  0.00002  0.00002  0.00002  0.00002  0.00002
 *H2              0.01765  0.01737  0.01708  0.01681  0.01653  0.01627  0.01600  0.01575

  * THERMODYNAMIC PROPERTIES FITTED TO 20000.K

 NOTE. WEIGHT FRACTION OF FUEL IN TOTAL FUELS AND OF OXIDANT IN TOTAL OXIDANTS









               THERMODYNAMIC EQUILIBRIUM PROPERTIES AT ASSIGNED

                           TEMPERATURE AND PRESSURE

 CASE =                

             REACTANT                    WT FRACTION      ENERGY      TEMP
                                          (SEE NOTE)     KJ/KG-MOL      K  
             H2                           1.0000000         0.000      0.000

 O/F=    0.00000  %FUEL=100.000000  R,EQ.RATIO= 0.000000  PHI,EQ.RATIO= 0.000000

 THERMODYNAMIC PROPERTIES

 P, BAR            3.1000   3.1000   3.1000   3.1000   3.1000   3.5000   3.5000   3.5000
 T, K             5800.00  5810.00  5820.00  5830.00  5840.00  5700.00  5710.00  5720.00
 RHO, KG/CU M    6.5796-3 6.5667-3 6.5538-3 6.5411-3 6.5284-3 7.5963-3 7.5805-3 7.5648-3
 H, KJ/KG        322734.9 323052.5 323368.2 323681.8 323993.6 318433.4 318788.8 319141.6
 U, KJ/KG        275619.7 275844.6 276067.7 276288.9 276508.4 272358.3 272617.7 272874.6
 G, KJ/KG       -632003.2-633649.5-635296.4-636943.9-638591.9-609972.4-611601.5-613231.2
 S, KJ/(KG)(K)   164.6100 164.6647 164.7190 164.7729 164.8263 162.8782 162.9405 163.0022

 M, (1/n)           1.024    1.023    1.023    1.023    1.023    1.029    1.028    1.028
 (dLV/dLP)t      -1.01480 -1.01458 -1.01436 -1.01414 -1.01393 -1.01930 -1.01900 -1.01871
 (dLV/dLT)p        1.1429   1.1405   1.1381   1.1358   1.1336   1.1894   1.1862   1.1830
 Cp, KJ/(KG)(K)   31.8673  31.6637  31.4643  31.2690  31.0777  35.6827  35.4067  35.1361
 GAMMAs            1.4666   1.4689   1.4711   1.4733   1.4755   1.4310   1.4334   1.4357
 SON VEL,M/SEC     8312.7   8327.2   8341.7   8356.1   8370.4   8120.0   8135.1   8150.2

 TRANSPORT PROPERTIES (GASES ONLY)
   CONDUCTIVITY IN UNITS OF MILLIWATTS/(CM)(K)

 VISC,MILLIPOISE  0.63450  0.63516  0.63583  0.63650  0.63717  0.63086  0.63144  0.63201

  WITH EQUILIBRIUM REACTIONS

 Cp, KJ/(KG)(K)   31.8673  31.6637  31.4643  31.2690  31.0777  35.6827  35.4067  35.1361
 CONDUCTIVITY     32.3269  32.1300  31.9374  31.7491  31.5650  36.3957  36.1212  35.8524
 PRANDTL NUMBER    0.6255   0.6259   0.6264   0.6269   0.6273   0.6185   0.6189   0.6194

  WITH FROZEN REACTIONS

 Cp, KJ/(KG)(K)   20.6265  20.6266  20.6267  20.6268  20.6268  20.6256  20.6258  20.6259
 CONDUCTIVITY     19.3806  19.4047  19.4290  19.4533  19.4777  19.1943  19.2167  19.2393
 PRANDTL NUMBER    0.6753   0.6752   0.6750   0.6749   0.6748   0.6779   0.6777   0.6776

 MOLE FRACTIONS

 *e-              0.00002  0.00002  0.00002  0.00002  0.00002  0.00001  0.00002  0.00002
 *H               0.98446  0.98471  0.98495  0.98519  0.98542  0.97946  0.97980  0.98012
 *H+              0.00002  0.00002  0.00002  0.00002  0.00002  0.00001  0.00002  0.00002
 *H2              0.01550  0.01525  0.01501  0.01477  0.01453  0.02051  0.02017  0.01984

  * THERMODYNAMIC PROPERTIES FITTED TO 20000.K

 NOTE. WEIGHT FRACTION OF FUEL IN TOTAL FUELS AND OF OXIDANT IN TOTAL OXIDANTS









               THERMODYNAMIC EQUILIBRIUM PROPERTIES AT ASSIGNED

                           TEMPERATURE AND PRESSURE

 CASE =                

             REACTANT                    WT FRACTION      ENERGY      TEMP
                                          (SEE NOTE)     KJ/KG-MOL      K  
             H2                           1.0000000         0.000      0.000

 O/F=    0.00000  %FUEL=100.000000  R,EQ.RATIO= 0.000000  PHI,EQ.RATIO= 0.000000

 THERMODYNAMIC PROPERTIES

 P, BAR            3.5000   3.5000   3.5000   3.5000   3.5000   3.5000   3.5000   3.5000
 T, K             5730.00  5740.00  5750.00  5760.00  5770.00  5780.00  5790.00  5800.00
 RHO, KG/CU M    7.5492-3 7.5337-3 7.5183-3 7.5030-3 7.4878-3 7.4727-3 7.4577-3 7.4427-3
 H, KJ/KG        319491.6 319839.0 320183.8 320526.1 320866.0 321203.4 321538.5 321871.2
 U, KJ/KG        273129.1 273381.1 273630.8 273878.2 274123.3 274366.2 274606.9 274845.5
 G, KJ/KG       -614861.5-616492.4-618124.0-619756.1-621388.9-623022.2-624656.1-626290.5
 S, KJ/(KG)(K)   163.0634 163.1239 163.1840 163.2435 163.3024 163.3608 163.4187 163.4762

 M, (1/n)           1.028    1.027    1.027    1.027    1.026    1.026    1.026    1.025
 (dLV/dLP)t      -1.01842 -1.01814 -1.01787 -1.01759 -1.01733 -1.01706 -1.01681 -1.01655
 (dLV/dLT)p        1.1799   1.1769   1.1739   1.1709   1.1681   1.1652   1.1625   1.1597
 Cp, KJ/(KG)(K)   34.8710  34.6112  34.3567  34.1073  33.8629  33.6234  33.3887  33.1588
 GAMMAs            1.4381   1.4404   1.4427   1.4450   1.4473   1.4496   1.4519   1.4542
 SON VEL,M/SEC     8165.3   8180.3   8195.3   8210.2   8225.1   8239.9   8254.7   8269.4

 TRANSPORT PROPERTIES (GASES ONLY)
   CONDUCTIVITY IN UNITS OF MILLIWATTS/(CM)(K)

 VISC,MILLIPOISE  0.63260  0.63319  0.63379  0.63439  0.63500  0.63561  0.63623  0.63686

  WITH EQUILIBRIUM REACTIONS

 Cp, KJ/(KG)(K)   34.8710  34.6112  34.3567  34.1073  33.8629  33.6234  33.3887  33.1588
 CONDUCTIVITY     35.5893  35.3318  35.0797  34.8330  34.5915  34.3551  34.1238  33.8974
 PRANDTL NUMBER    0.6198   0.6203   0.6207   0.6212   0.6216   0.6221   0.6225   0.6230

  WITH FROZEN REACTIONS

 Cp, KJ/(KG)(K)   20.6261  20.6262  20.6263  20.6265  20.6266  20.6267  20.6268  20.6269
 CONDUCTIVITY     19.2619  19.2847  19.3076  19.3307  19.3538  19.3770  19.4004  19.4238
 PRANDTL NUMBER    0.6774   0.6772   0.6771   0.6769   0.6768   0.6766   0.6765   0.6763

 MOLE FRACTIONS

 *e-              0.00002  0.00002  0.00002  0.00002  0.00002  0.00002  0.00002  0.00002
 *H               0.98045  0.98076  0.98107  0.98138  0.98167  0.98197  0.98225  0.98253
 *H+              0.00002  0.00002  0.00002  0.00002  0.00002  0.00002  0.00002  0.00002
 *H2              0.01952  0.01920  0.01889  0.01859  0.01829  0.01800  0.01771  0.01743

  * THERMODYNAMIC PROPERTIES FITTED TO 20000.K

 NOTE. WEIGHT FRACTION OF FUEL IN TOTAL FUELS AND OF OXIDANT IN TOTAL OXIDANTS









               THERMODYNAMIC EQUILIBRIUM PROPERTIES AT ASSIGNED

                           TEMPERATURE AND PRESSURE

 CASE =                

             REACTANT                    WT FRACTION      ENERGY      TEMP
                                          (SEE NOTE)     KJ/KG-MOL      K  
             H2                           1.0000000         0.000      0.000

 O/F=    0.00000  %FUEL=100.000000  R,EQ.RATIO= 0.000000  PHI,EQ.RATIO= 0.000000

 THERMODYNAMIC PROPERTIES

 P, BAR            3.5000   3.5000   3.5000   3.5000   3.9000   3.9000   3.9000   3.9000
 T, K             5810.00  5820.00  5830.00  5840.00  5700.00  5710.00  5720.00  5730.00
 RHO, KG/CU M    7.4279-3 7.4132-3 7.3985-3 7.3839-3 8.4830-3 8.4651-3 8.4473-3 8.4296-3
 H, KJ/KG        322201.7 322529.9 322855.9 323179.8 317442.7 317812.9 318180.1 318544.4
 U, KJ/KG        275082.1 275316.5 275549.0 275779.6 271468.5 271741.3 272011.4 272278.9
 G, KJ/KG       -627925.6-629561.2-631197.4-632834.1-604991.8-606610.4-608229.7-609849.6
 S, KJ/(KG)(K)   163.5331 163.5895 163.6455 163.7010 161.8306 161.8955 161.9598 162.0234

 M, (1/n)           1.025    1.025    1.025    1.024    1.031    1.030    1.030    1.030
 (dLV/dLP)t      -1.01630 -1.01606 -1.01582 -1.01558 -1.02126 -1.02094 -1.02062 -1.02031
 (dLV/dLT)p        1.1571   1.1545   1.1519   1.1494   1.2087   1.2052   1.2017   1.1983
 Cp, KJ/(KG)(K)   32.9335  32.7128  32.4964  32.2845  37.1713  36.8710  36.5765  36.2879
 GAMMAs            1.4564   1.4587   1.4609   1.4631   1.4199   1.4223   1.4246   1.4269
 SON VEL,M/SEC     8284.1   8298.7   8313.3   8327.9   8079.6   8094.8   8110.0   8125.2

 TRANSPORT PROPERTIES (GASES ONLY)
   CONDUCTIVITY IN UNITS OF MILLIWATTS/(CM)(K)

 VISC,MILLIPOISE  0.63749  0.63813  0.63877  0.63942  0.63351  0.63405  0.63459  0.63514

  WITH EQUILIBRIUM REACTIONS

 Cp, KJ/(KG)(K)   32.9335  32.7128  32.4964  32.2845  37.1713  36.8710  36.5765  36.2879
 CONDUCTIVITY     33.6759  33.4591  33.2470  33.0395  38.1943  37.8922  37.5962  37.3063
 PRANDTL NUMBER    0.6234   0.6239   0.6243   0.6248   0.6165   0.6170   0.6174   0.6178

  WITH FROZEN REACTIONS

 Cp, KJ/(KG)(K)   20.6270  20.6271  20.6272  20.6273  20.6259  20.6261  20.6262  20.6264
 CONDUCTIVITY     19.4474  19.4711  19.4949  19.5187  19.2430  19.2648  19.2867  19.3088
 PRANDTL NUMBER    0.6762   0.6760   0.6759   0.6757   0.6790   0.6789   0.6787   0.6785

 MOLE FRACTIONS

 *e-              0.00002  0.00002  0.00002  0.00002  0.00001  0.00001  0.00001  0.00002
 *H               0.98281  0.98308  0.98335  0.98361  0.97722  0.97759  0.97796  0.97831
 *H+              0.00002  0.00002  0.00002  0.00002  0.00001  0.00001  0.00001  0.00002
 *H2              0.01715  0.01688  0.01661  0.01635  0.02275  0.02238  0.02201  0.02166

  * THERMODYNAMIC PROPERTIES FITTED TO 20000.K

 NOTE. WEIGHT FRACTION OF FUEL IN TOTAL FUELS AND OF OXIDANT IN TOTAL OXIDANTS









               THERMODYNAMIC EQUILIBRIUM PROPERTIES AT ASSIGNED

                           TEMPERATURE AND PRESSURE

 CASE =                

             REACTANT                    WT FRACTION      ENERGY      TEMP
                                          (SEE NOTE)     KJ/KG-MOL      K  
             H2                           1.0000000         0.000      0.000

 O/F=    0.00000  %FUEL=100.000000  R,EQ.RATIO= 0.000000  PHI,EQ.RATIO= 0.000000

 THERMODYNAMIC PROPERTIES

 P, BAR            3.9000   3.9000   3.9000   3.9000   3.9000   3.9000   3.9000   3.9000
 T, K             5740.00  5750.00  5760.00  5770.00  5780.00  5790.00  5800.00  5810.00
 RHO, KG/CU M    8.4120-3 8.3946-3 8.3772-3 8.3600-3 8.3429-3 8.3259-3 8.3090-3 8.2922-3
 H, KJ/KG        318905.9 319264.5 319620.5 319973.7 320324.3 320672.3 321017.7 321360.7
 U, KJ/KG        272543.7 272806.0 273065.7 273323.0 273577.8 273830.3 274080.5 274328.4
 G, KJ/KG       -611470.2-613091.3-614713.1-616335.6-617958.6-619582.2-621206.4-622831.3
 S, KJ/(KG)(K)   162.0864 162.1489 162.2107 162.2720 162.3327 162.3928 162.4524 162.5115

 M, (1/n)           1.029    1.029    1.029    1.028    1.028    1.028    1.027    1.027
 (dLV/dLP)t      -1.02000 -1.01970 -1.01940 -1.01911 -1.01882 -1.01854 -1.01827 -1.01799
 (dLV/dLT)p        1.1950   1.1917   1.1885   1.1854   1.1823   1.1792   1.1763   1.1733
 Cp, KJ/(KG)(K)   36.0050  35.7277  35.4558  35.1893  34.9280  34.6720  34.4209  34.1749
 GAMMAs            1.4293   1.4316   1.4339   1.4362   1.4385   1.4408   1.4430   1.4453
 SON VEL,M/SEC     8140.3   8155.3   8170.3   8185.3   8200.3   8215.1   8230.0   8244.8

 TRANSPORT PROPERTIES (GASES ONLY)
   CONDUCTIVITY IN UNITS OF MILLIWATTS/(CM)(K)

 VISC,MILLIPOISE  0.63570  0.63627  0.63684  0.63742  0.63800  0.63859  0.63919  0.63979

  WITH EQUILIBRIUM REACTIONS

 Cp, KJ/(KG)(K)   36.0050  35.7277  35.4558  35.1893  34.9280  34.6720  34.4209  34.1749
 CONDUCTIVITY     37.0224  36.7443  36.4720  36.2053  35.9442  35.6884  35.4380  35.1928
 PRANDTL NUMBER    0.6182   0.6187   0.6191   0.6195   0.6200   0.6204   0.6208   0.6213

  WITH FROZEN REACTIONS

 Cp, KJ/(KG)(K)   20.6266  20.6267  20.6268  20.6270  20.6271  20.6272  20.6273  20.6274
 CONDUCTIVITY     19.3310  19.3533  19.3757  19.3982  19.4209  19.4437  19.4666  19.4896
 PRANDTL NUMBER    0.6783   0.6781   0.6780   0.6778   0.6776   0.6775   0.6773   0.6771

 MOLE FRACTIONS

 *e-              0.00002  0.00002  0.00002  0.00002  0.00002  0.00002  0.00002  0.00002
 *H               0.97866  0.97900  0.97934  0.97967  0.97999  0.98031  0.98062  0.98093
 *H+              0.00002  0.00002  0.00002  0.00002  0.00002  0.00002  0.00002  0.00002
 *H2              0.02131  0.02096  0.02063  0.02030  0.01997  0.01965  0.01934  0.01904

  * THERMODYNAMIC PROPERTIES FITTED TO 20000.K

 NOTE. WEIGHT FRACTION OF FUEL IN TOTAL FUELS AND OF OXIDANT IN TOTAL OXIDANTS









               THERMODYNAMIC EQUILIBRIUM PROPERTIES AT ASSIGNED

                           TEMPERATURE AND PRESSURE

 CASE =                

             REACTANT                    WT FRACTION      ENERGY      TEMP
                                          (SEE NOTE)     KJ/KG-MOL      K  
             H2                           1.0000000         0.000      0.000

 O/F=    0.00000  %FUEL=100.000000  R,EQ.RATIO= 0.000000  PHI,EQ.RATIO= 0.000000

 THERMODYNAMIC PROPERTIES

 P, BAR            3.9000   3.9000   3.9000   4.4000   4.4000   4.4000   4.4000   4.4000
 T, K             5820.00  5830.00  5840.00  5700.00  5710.00  5720.00  5730.00  5740.00
 RHO, KG/CU M    8.2755-3 8.2589-3 8.2424-3 9.5965-3 9.5759-3 9.5553-3 9.5349-3 9.5147-3
 H, KJ/KG        321701.2 322039.4 322375.2 316222.9 316611.0 316995.9 317377.6 317756.1
 U, KJ/KG        274574.0 274817.5 275058.8 270373.0 270662.2 270948.3 271231.5 271511.9
 G, KJ/KG       -624456.7-626082.7-627709.2-599453.4-601060.2-602667.6-604275.8-605884.6
 S, KJ/(KG)(K)   162.5701 162.6281 162.6857 160.6450 160.7130 160.7803 160.8470 160.9130

 M, (1/n)           1.027    1.027    1.026    1.034    1.033    1.033    1.032    1.032
 (dLV/dLP)t      -1.01773 -1.01746 -1.01720 -1.02365 -1.02330 -1.02295 -1.02261 -1.02227
 (dLV/dLT)p        1.1705   1.1677   1.1649   1.2321   1.2283   1.2245   1.2207   1.2171
 Cp, KJ/(KG)(K)   33.9337  33.6973  33.4656  38.9759  38.6471  38.3246  38.0083  37.6981
 GAMMAs            1.4476   1.4498   1.4521   1.4078   1.4101   1.4124   1.4147   1.4170
 SON VEL,M/SEC     8259.5   8274.3   8288.9   8034.1   8049.4   8064.6   8079.8   8095.0

 TRANSPORT PROPERTIES (GASES ONLY)
   CONDUCTIVITY IN UNITS OF MILLIWATTS/(CM)(K)

 VISC,MILLIPOISE  0.64040  0.64101  0.64163  0.63676  0.63725  0.63776  0.63827  0.63879

  WITH EQUILIBRIUM REACTIONS

 Cp, KJ/(KG)(K)   33.9337  33.6973  33.4656  38.9759  38.6471  38.3246  38.0083  37.6981
 CONDUCTIVITY     34.9528  34.7177  34.4876  40.3866  40.0517  39.7234  39.4016  39.0863
 PRANDTL NUMBER    0.6217   0.6222   0.6226   0.6145   0.6149   0.6153   0.6157   0.6161

  WITH FROZEN REACTIONS

 Cp, KJ/(KG)(K)   20.6275  20.6276  20.6277  20.6262  20.6264  20.6266  20.6268  20.6270
 CONDUCTIVITY     19.5127  19.5360  19.5593  19.3030  19.3240  19.3452  19.3665  19.3879
 PRANDTL NUMBER    0.6770   0.6768   0.6767   0.6804   0.6802   0.6800   0.6798   0.6796

 MOLE FRACTIONS

 *e-              0.00002  0.00002  0.00002  0.00001  0.00001  0.00001  0.00001  0.00001
 *H               0.98123  0.98152  0.98181  0.97445  0.97487  0.97527  0.97567  0.97606
 *H+              0.00002  0.00002  0.00002  0.00001  0.00001  0.00001  0.00001  0.00001
 *H2              0.01874  0.01844  0.01815  0.02552  0.02511  0.02470  0.02430  0.02391

  * THERMODYNAMIC PROPERTIES FITTED TO 20000.K

 NOTE. WEIGHT FRACTION OF FUEL IN TOTAL FUELS AND OF OXIDANT IN TOTAL OXIDANTS









               THERMODYNAMIC EQUILIBRIUM PROPERTIES AT ASSIGNED

                           TEMPERATURE AND PRESSURE

 CASE =                

             REACTANT                    WT FRACTION      ENERGY      TEMP
                                          (SEE NOTE)     KJ/KG-MOL      K  
             H2                           1.0000000         0.000      0.000

 O/F=    0.00000  %FUEL=100.000000  R,EQ.RATIO= 0.000000  PHI,EQ.RATIO= 0.000000

 THERMODYNAMIC PROPERTIES

 P, BAR            4.4000   4.4000   4.4000   4.4000   4.4000   4.4000   4.4000   4.4000
 T, K             5750.00  5760.00  5770.00  5780.00  5790.00  5800.00  5810.00  5820.00
 RHO, KG/CU M    9.4946-3 9.4746-3 9.4548-3 9.4351-3 9.4155-3 9.3961-3 9.3767-3 9.3576-3
 H, KJ/KG        318131.5 318504.0 318873.5 319240.1 319603.8 319964.8 320323.0 320678.5
 U, KJ/KG        271789.4 272064.2 272336.2 272605.6 272872.4 273136.7 273398.4 273657.7
 G, KJ/KG       -607494.0-609104.2-610714.9-612326.3-613938.3-615551.0-617164.2-618778.1
 S, KJ/(KG)(K)   160.9784 161.0431 161.1072 161.1706 161.2335 161.2958 161.3575 161.4187

 M, (1/n)           1.032    1.031    1.031    1.031    1.030    1.030    1.029    1.029
 (dLV/dLP)t      -1.02194 -1.02161 -1.02129 -1.02098 -1.02067 -1.02036 -1.02006 -1.01977
 (dLV/dLT)p        1.2135   1.2099   1.2065   1.2031   1.1997   1.1964   1.1932   1.1901
 Cp, KJ/(KG)(K)   37.3938  37.0954  36.8027  36.5157  36.2343  35.9583  35.6876  35.4221
 GAMMAs            1.4193   1.4216   1.4239   1.4262   1.4285   1.4307   1.4330   1.4352
 SON VEL,M/SEC     8110.1   8125.2   8140.3   8155.3   8170.3   8185.2   8200.1   8215.0

 TRANSPORT PROPERTIES (GASES ONLY)
   CONDUCTIVITY IN UNITS OF MILLIWATTS/(CM)(K)

 VISC,MILLIPOISE  0.63931  0.63985  0.64039  0.64093  0.64149  0.64205  0.64261  0.64319

  WITH EQUILIBRIUM REACTIONS

 Cp, KJ/(KG)(K)   37.3938  37.0954  36.8027  36.5157  36.2343  35.9583  35.6876  35.4221
 CONDUCTIVITY     38.7773  38.4744  38.1777  37.8869  37.6020  37.3228  37.0493  36.7813
 PRANDTL NUMBER    0.6165   0.6169   0.6173   0.6177   0.6182   0.6186   0.6190   0.6194

  WITH FROZEN REACTIONS

 Cp, KJ/(KG)(K)   20.6271  20.6273  20.6274  20.6276  20.6277  20.6278  20.6280  20.6281
 CONDUCTIVITY     19.4095  19.4312  19.4531  19.4750  19.4971  19.5194  19.5417  19.5642
 PRANDTL NUMBER    0.6794   0.6792   0.6790   0.6789   0.6787   0.6785   0.6783   0.6782

 MOLE FRACTIONS

 *e-              0.00001  0.00002  0.00002  0.00002  0.00002  0.00002  0.00002  0.00002
 *H               0.97644  0.97682  0.97718  0.97755  0.97790  0.97825  0.97859  0.97893
 *H+              0.00001  0.00002  0.00002  0.00002  0.00002  0.00002  0.00002  0.00002
 *H2              0.02353  0.02315  0.02278  0.02242  0.02207  0.02172  0.02137  0.02104

  * THERMODYNAMIC PROPERTIES FITTED TO 20000.K

 NOTE. WEIGHT FRACTION OF FUEL IN TOTAL FUELS AND OF OXIDANT IN TOTAL OXIDANTS









               THERMODYNAMIC EQUILIBRIUM PROPERTIES AT ASSIGNED

                           TEMPERATURE AND PRESSURE

 CASE =                

             REACTANT                    WT FRACTION      ENERGY      TEMP
                                          (SEE NOTE)     KJ/KG-MOL      K  
             H2                           1.0000000         0.000      0.000

 O/F=    0.00000  %FUEL=100.000000  R,EQ.RATIO= 0.000000  PHI,EQ.RATIO= 0.000000

 THERMODYNAMIC PROPERTIES

 P, BAR            4.4000   4.4000   4.9000   4.9000   4.9000   4.9000   4.9000   4.9000
 T, K             5830.00  5840.00  5700.00  5710.00  5720.00  5730.00  5740.00  5750.00
 RHO, KG/CU M    9.3385-3 9.3195-3 1.0716-2 1.0692-2 1.0669-2 1.0646-2 1.0623-2 1.0600-2
 H, KJ/KG        321031.4 321381.8 315023.4 315428.8 315830.7 316229.2 316624.2 317015.9
 U, KJ/KG        273914.6 274169.1 269295.7 269600.6 269902.2 270200.7 270496.1 270788.5
 G, KJ/KG       -620392.6-622007.7-594525.0-596121.1-597717.8-599315.3-600913.4-602512.3
 S, KJ/(KG)(K)   161.4793 161.5393 159.5699 159.6410 159.7113 159.7809 159.8498 159.9180

 M, (1/n)           1.029    1.028    1.036    1.036    1.036    1.035    1.035    1.034
 (dLV/dLP)t      -1.01948 -1.01919 -1.02598 -1.02560 -1.02522 -1.02485 -1.02448 -1.02412
 (dLV/dLT)p        1.1870   1.1839   1.2550   1.2508   1.2466   1.2426   1.2386   1.2347
 Cp, KJ/(KG)(K)   35.1618  34.9066  40.7206  40.3652  40.0164  39.6742  39.3384  39.0089
 GAMMAs            1.4375   1.4397   1.3972   1.3995   1.4018   1.4040   1.4063   1.4086
 SON VEL,M/SEC     8229.8   8244.6   7993.2   8008.5   8023.8   8039.0   8054.2   8069.4

 TRANSPORT PROPERTIES (GASES ONLY)
   CONDUCTIVITY IN UNITS OF MILLIWATTS/(CM)(K)

 VISC,MILLIPOISE  0.64377  0.64435  0.63993  0.64039  0.64086  0.64133  0.64181  0.64230

  WITH EQUILIBRIUM REACTIONS

 Cp, KJ/(KG)(K)   35.1618  34.9066  40.7206  40.3652  40.0164  39.6742  39.3384  39.0089
 CONDUCTIVITY     36.5187  36.2615  42.5187  42.1528  41.7940  41.4421  41.0970  40.7586
 PRANDTL NUMBER    0.6198   0.6203   0.6129   0.6132   0.6136   0.6140   0.6144   0.6147

  WITH FROZEN REACTIONS

 Cp, KJ/(KG)(K)   20.6282  20.6283  20.6266  20.6268  20.6270  20.6272  20.6274  20.6276
 CONDUCTIVITY     19.5868  19.6095  19.3620  19.3823  19.4027  19.4233  19.4441  19.4649
 PRANDTL NUMBER    0.6780   0.6778   0.6817   0.6815   0.6813   0.6811   0.6809   0.6807

 MOLE FRACTIONS

 *e-              0.00002  0.00002  0.00001  0.00001  0.00001  0.00001  0.00001  0.00001
 *H               0.97925  0.97958  0.97172  0.97217  0.97262  0.97305  0.97348  0.97391
 *H+              0.00002  0.00002  0.00001  0.00001  0.00001  0.00001  0.00001  0.00001
 *H2              0.02071  0.02038  0.02826  0.02780  0.02736  0.02692  0.02649  0.02607

  * THERMODYNAMIC PROPERTIES FITTED TO 20000.K

 NOTE. WEIGHT FRACTION OF FUEL IN TOTAL FUELS AND OF OXIDANT IN TOTAL OXIDANTS









               THERMODYNAMIC EQUILIBRIUM PROPERTIES AT ASSIGNED

                           TEMPERATURE AND PRESSURE

 CASE =                

             REACTANT                    WT FRACTION      ENERGY      TEMP
                                          (SEE NOTE)     KJ/KG-MOL      K  
             H2                           1.0000000         0.000      0.000

 O/F=    0.00000  %FUEL=100.000000  R,EQ.RATIO= 0.000000  PHI,EQ.RATIO= 0.000000

 THERMODYNAMIC PROPERTIES

 P, BAR            4.9000   4.9000   4.9000   4.9000   4.9000   4.9000   4.9000   4.9000
 T, K             5760.00  5770.00  5780.00  5790.00  5800.00  5810.00  5820.00  5830.00
 RHO, KG/CU M    1.0577-2 1.0555-2 1.0532-2 1.0510-2 1.0488-2 1.0466-2 1.0444-2 1.0423-2
 H, KJ/KG        317404.4 317789.7 318171.8 318550.8 318926.8 319299.9 319670.0 320037.3
 U, KJ/KG        271077.8 271364.2 271647.7 271928.4 272206.3 272481.5 272754.1 273024.0
 G, KJ/KG       -604111.8-605712.0-607312.8-608914.4-610516.5-612119.3-613722.8-615326.9
 S, KJ/(KG)(K)   159.9855 160.0523 160.1184 160.1840 160.2489 160.3131 160.3768 160.4398

 M, (1/n)           1.034    1.033    1.033    1.033    1.032    1.032    1.031    1.031
 (dLV/dLP)t      -1.02377 -1.02342 -1.02308 -1.02274 -1.02241 -1.02208 -1.02176 -1.02144
 (dLV/dLT)p        1.2308   1.2271   1.2234   1.2197   1.2162   1.2126   1.2092   1.2058
 Cp, KJ/(KG)(K)   38.6855  38.3683  38.0571  37.7517  37.4521  37.1582  36.8698  36.5869
 GAMMAs            1.4108   1.4131   1.4154   1.4176   1.4199   1.4221   1.4244   1.4266
 SON VEL,M/SEC     8084.5   8099.6   8114.7   8129.7   8144.7   8159.7   8174.6   8189.5

 TRANSPORT PROPERTIES (GASES ONLY)
   CONDUCTIVITY IN UNITS OF MILLIWATTS/(CM)(K)

 VISC,MILLIPOISE  0.64280  0.64330  0.64381  0.64433  0.64486  0.64539  0.64593  0.64647

  WITH EQUILIBRIUM REACTIONS

 Cp, KJ/(KG)(K)   38.6855  38.3683  38.0571  37.7517  37.4521  37.1582  36.8698  36.5869
 CONDUCTIVITY     40.4268  40.1015  39.7826  39.4699  39.1633  38.8628  38.5682  38.2794
 PRANDTL NUMBER    0.6151   0.6155   0.6159   0.6163   0.6167   0.6171   0.6175   0.6179

  WITH FROZEN REACTIONS

 Cp, KJ/(KG)(K)   20.6277  20.6279  20.6281  20.6282  20.6283  20.6285  20.6286  20.6287
 CONDUCTIVITY     19.4860  19.5071  19.5284  19.5498  19.5714  19.5931  19.6149  19.6369
 PRANDTL NUMBER    0.6805   0.6803   0.6801   0.6799   0.6797   0.6795   0.6793   0.6791

 MOLE FRACTIONS

 *e-              0.00001  0.00001  0.00002  0.00002  0.00002  0.00002  0.00002  0.00002
 *H               0.97432  0.97472  0.97512  0.97551  0.97590  0.97628  0.97665  0.97701
 *H+              0.00001  0.00001  0.00002  0.00002  0.00002  0.00002  0.00002  0.00002
 *H2              0.02565  0.02525  0.02485  0.02445  0.02407  0.02369  0.02332  0.02296

  * THERMODYNAMIC PROPERTIES FITTED TO 20000.K

 NOTE. WEIGHT FRACTION OF FUEL IN TOTAL FUELS AND OF OXIDANT IN TOTAL OXIDANTS









               THERMODYNAMIC EQUILIBRIUM PROPERTIES AT ASSIGNED

                           TEMPERATURE AND PRESSURE

 CASE =                

             REACTANT                    WT FRACTION      ENERGY      TEMP
                                          (SEE NOTE)     KJ/KG-MOL      K  
             H2                           1.0000000         0.000      0.000

 O/F=    0.00000  %FUEL=100.000000  R,EQ.RATIO= 0.000000  PHI,EQ.RATIO= 0.000000

 THERMODYNAMIC PROPERTIES

 P, BAR            4.9000   5.4000   5.4000   5.4000   5.4000   5.4000   5.4000   5.4000
 T, K             5840.00  5700.00  5710.00  5720.00  5730.00  5740.00  5750.00  5760.00
 RHO, KG/CU M    1.0401-2 1.1840-2 1.1814-2 1.1788-2 1.1761-2 1.1736-2 1.1710-2 1.1684-2
 H, KJ/KG        320401.8 313843.4 314265.6 314684.0 315098.7 315509.8 315917.3 316321.3
 U, KJ/KG        273291.4 268236.0 268556.1 268872.8 269186.1 269496.0 269802.7 270106.2
 G, KJ/KG       -616931.6-590087.7-591673.9-593260.9-594848.5-596436.9-598026.1-599615.9
 S, KJ/(KG)(K)   160.5023 158.5844 158.6584 158.7316 158.8041 158.8757 158.9467 159.0169

 M, (1/n)           1.031    1.039    1.039    1.038    1.038    1.037    1.037    1.036
 (dLV/dLP)t      -1.02113 -1.02824 -1.02783 -1.02743 -1.02703 -1.02663 -1.02625 -1.02587
 (dLV/dLT)p        1.2025   1.2771   1.2726   1.2682   1.2638   1.2596   1.2554   1.2512
 Cp, KJ/(KG)(K)   36.3093  42.4076  42.0274  41.6541  41.2876  40.9278  40.5746  40.2279
 GAMMAs            1.4288   1.3879   1.3902   1.3924   1.3946   1.3969   1.3991   1.4013
 SON VEL,M/SEC     8204.4   7956.1   7971.4   7986.7   8001.9   8017.1   8032.3   8047.5

 TRANSPORT PROPERTIES (GASES ONLY)
   CONDUCTIVITY IN UNITS OF MILLIWATTS/(CM)(K)

 VISC,MILLIPOISE  0.64703  0.64305  0.64347  0.64390  0.64434  0.64478  0.64524  0.64570

  WITH EQUILIBRIUM REACTIONS

 Cp, KJ/(KG)(K)   36.3093  42.4076  42.0274  41.6541  41.2876  40.9278  40.5746  40.2279
 CONDUCTIVITY     37.9963  44.5928  44.1976  43.8099  43.4295  43.0562  42.6901  42.3308
 PRANDTL NUMBER    0.6183   0.6115   0.6119   0.6122   0.6126   0.6129   0.6133   0.6136

  WITH FROZEN REACTIONS

 Cp, KJ/(KG)(K)   20.6288  20.6269  20.6272  20.6274  20.6276  20.6278  20.6280  20.6282
 CONDUCTIVITY     19.6590  19.4201  19.4396  19.4594  19.4793  19.4993  19.5195  19.5399
 PRANDTL NUMBER    0.6789   0.6830   0.6828   0.6825   0.6823   0.6821   0.6819   0.6817

 MOLE FRACTIONS

 *e-              0.00002  0.00001  0.00001  0.00001  0.00001  0.00001  0.00001  0.00001
 *H               0.97737  0.96901  0.96950  0.96999  0.97047  0.97093  0.97139  0.97185
 *H+              0.00002  0.00001  0.00001  0.00001  0.00001  0.00001  0.00001  0.00001
 *H2              0.02260  0.03097  0.03047  0.02999  0.02951  0.02904  0.02858  0.02813

  * THERMODYNAMIC PROPERTIES FITTED TO 20000.K

 NOTE. WEIGHT FRACTION OF FUEL IN TOTAL FUELS AND OF OXIDANT IN TOTAL OXIDANTS









               THERMODYNAMIC EQUILIBRIUM PROPERTIES AT ASSIGNED

                           TEMPERATURE AND PRESSURE

 CASE =                

             REACTANT                    WT FRACTION      ENERGY      TEMP
                                          (SEE NOTE)     KJ/KG-MOL      K  
             H2                           1.0000000         0.000      0.000

 O/F=    0.00000  %FUEL=100.000000  R,EQ.RATIO= 0.000000  PHI,EQ.RATIO= 0.000000

 THERMODYNAMIC PROPERTIES

 P, BAR            5.4000   5.4000   5.4000   5.4000   5.4000   5.4000   5.4000   5.4000
 T, K             5770.00  5780.00  5790.00  5800.00  5810.00  5820.00  5830.00  5840.00
 RHO, KG/CU M    1.1659-2 1.1634-2 1.1609-2 1.1584-2 1.1560-2 1.1535-2 1.1511-2 1.1487-2
 H, KJ/KG        316721.9 317119.1 317512.9 317903.6 318291.0 318675.4 319056.6 319434.9
 U, KJ/KG        270406.5 270703.7 270997.9 271289.2 271577.4 271862.9 272145.5 272425.3
 G, KJ/KG       -601206.4-602797.6-604389.5-605982.1-607575.3-609169.2-610763.8-612359.0
 S, KJ/(KG)(K)   159.0864 159.1551 159.2232 159.2906 159.3574 159.4235 159.4889 159.5537

 M, (1/n)           1.036    1.035    1.035    1.035    1.034    1.034    1.033    1.033
 (dLV/dLP)t      -1.02549 -1.02513 -1.02476 -1.02441 -1.02405 -1.02371 -1.02337 -1.02303
 (dLV/dLT)p        1.2472   1.2432   1.2393   1.2354   1.2316   1.2279   1.2243   1.2207
 Cp, KJ/(KG)(K)   39.8876  39.5535  39.2257  38.9038  38.5879  38.2779  37.9736  37.6750
 GAMMAs            1.4035   1.4058   1.4080   1.4102   1.4124   1.4147   1.4169   1.4191
 SON VEL,M/SEC     8062.6   8077.7   8092.8   8107.8   8122.8   8137.8   8152.8   8167.7

 TRANSPORT PROPERTIES (GASES ONLY)
   CONDUCTIVITY IN UNITS OF MILLIWATTS/(CM)(K)

 VISC,MILLIPOISE  0.64617  0.64664  0.64713  0.64762  0.64812  0.64862  0.64914  0.64966

  WITH EQUILIBRIUM REACTIONS

 Cp, KJ/(KG)(K)   39.8876  39.5535  39.2257  38.9038  38.5879  38.2779  37.9736  37.6750
 CONDUCTIVITY     41.9784  41.6327  41.2935  40.9609  40.6347  40.3147  40.0009  39.6931
 PRANDTL NUMBER    0.6140   0.6143   0.6147   0.6151   0.6155   0.6159   0.6162   0.6166

  WITH FROZEN REACTIONS

 Cp, KJ/(KG)(K)   20.6284  20.6285  20.6287  20.6288  20.6290  20.6291  20.6292  20.6294
 CONDUCTIVITY     19.5604  19.5810  19.6018  19.6227  19.6438  19.6650  19.6864  19.7078
 PRANDTL NUMBER    0.6814   0.6812   0.6810   0.6808   0.6806   0.6804   0.6802   0.6800

 MOLE FRACTIONS

 *e-              0.00001  0.00001  0.00001  0.00002  0.00002  0.00002  0.00002  0.00002
 *H               0.97229  0.97272  0.97315  0.97357  0.97398  0.97439  0.97478  0.97517
 *H+              0.00001  0.00001  0.00001  0.00002  0.00002  0.00002  0.00002  0.00002
 *H2              0.02768  0.02725  0.02682  0.02640  0.02599  0.02558  0.02518  0.02479

  * THERMODYNAMIC PROPERTIES FITTED TO 20000.K

 NOTE. WEIGHT FRACTION OF FUEL IN TOTAL FUELS AND OF OXIDANT IN TOTAL OXIDANTS









               THERMODYNAMIC EQUILIBRIUM PROPERTIES AT ASSIGNED

                           TEMPERATURE AND PRESSURE

 CASE =                

             REACTANT                    WT FRACTION      ENERGY      TEMP
                                          (SEE NOTE)     KJ/KG-MOL      K  
             H2                           1.0000000         0.000      0.000

 O/F=    0.00000  %FUEL=100.000000  R,EQ.RATIO= 0.000000  PHI,EQ.RATIO= 0.000000

 THERMODYNAMIC PROPERTIES

 P, BAR            6.0000   6.0000   6.0000   6.0000   6.0000   6.0000   6.0000   6.0000
 T, K             5700.00  5710.00  5720.00  5730.00  5740.00  5750.00  5760.00  5770.00
 RHO, KG/CU M    1.3197-2 1.3167-2 1.3137-2 1.3107-2 1.3078-2 1.3049-2 1.3020-2 1.2991-2
 H, KJ/KG        312452.6 312894.1 313331.6 313765.1 314194.8 314620.6 315042.6 315461.0
 U, KJ/KG        266986.9 267324.6 267658.7 267989.1 268316.0 268639.3 268959.2 269275.7
 G, KJ/KG       -585289.8-586865.2-588441.4-590018.3-591595.9-593174.3-594753.5-596333.3
 S, KJ/(KG)(K)   157.4987 157.5761 157.6526 157.7283 157.8033 157.8774 157.9507 158.0233

 M, (1/n)           1.042    1.042    1.041    1.041    1.040    1.040    1.039    1.039
 (dLV/dLP)t      -1.03088 -1.03043 -1.03000 -1.02957 -1.02915 -1.02873 -1.02832 -1.02792
 (dLV/dLT)p        1.3030   1.2981   1.2933   1.2886   1.2840   1.2795   1.2750   1.2706
 Cp, KJ/(KG)(K)   44.3592  43.9513  43.5507  43.1572  42.7706  42.3910  42.0181  41.6519
 GAMMAs            1.3782   1.3803   1.3825   1.3847   1.3869   1.3891   1.3912   1.3934
 SON VEL,M/SEC     7915.8   7931.0   7946.3   7961.5   7976.7   7991.9   8007.1   8022.2

 TRANSPORT PROPERTIES (GASES ONLY)
   CONDUCTIVITY IN UNITS OF MILLIWATTS/(CM)(K)

 VISC,MILLIPOISE  0.64670  0.64708  0.64747  0.64786  0.64827  0.64868  0.64910  0.64953

  WITH EQUILIBRIUM REACTIONS

 Cp, KJ/(KG)(K)   44.3592  43.9513  43.5507  43.1572  42.7706  42.3910  42.0181  41.6519
 CONDUCTIVITY     47.0079  46.5798  46.1596  45.7469  45.3419  44.9442  44.5539  44.1707
 PRANDTL NUMBER    0.6103   0.6106   0.6109   0.6112   0.6115   0.6118   0.6122   0.6125

  WITH FROZEN REACTIONS

 Cp, KJ/(KG)(K)   20.6273  20.6276  20.6278  20.6281  20.6283  20.6285  20.6287  20.6289
 CONDUCTIVITY     19.4885  19.5073  19.5262  19.5453  19.5646  19.5840  19.6036  19.6233
 PRANDTL NUMBER    0.6845   0.6842   0.6840   0.6838   0.6835   0.6833   0.6830   0.6828

 MOLE FRACTIONS

 *e-              0.00001  0.00001  0.00001  0.00001  0.00001  0.00001  0.00001  0.00001
 *H               0.96579  0.96634  0.96687  0.96740  0.96791  0.96841  0.96891  0.96940
 *H+              0.00001  0.00001  0.00001  0.00001  0.00001  0.00001  0.00001  0.00001
 *H2              0.03418  0.03364  0.03310  0.03258  0.03206  0.03156  0.03106  0.03058

  * THERMODYNAMIC PROPERTIES FITTED TO 20000.K

 NOTE. WEIGHT FRACTION OF FUEL IN TOTAL FUELS AND OF OXIDANT IN TOTAL OXIDANTS









               THERMODYNAMIC EQUILIBRIUM PROPERTIES AT ASSIGNED

                           TEMPERATURE AND PRESSURE

 CASE =                

             REACTANT                    WT FRACTION      ENERGY      TEMP
                                          (SEE NOTE)     KJ/KG-MOL      K  
             H2                           1.0000000         0.000      0.000

 O/F=    0.00000  %FUEL=100.000000  R,EQ.RATIO= 0.000000  PHI,EQ.RATIO= 0.000000

 THERMODYNAMIC PROPERTIES

 P, BAR            6.0000   6.0000   6.0000   6.0000   6.0000   6.0000   6.0000   6.7000
 T, K             5780.00  5790.00  5800.00  5810.00  5820.00  5830.00  5840.00  5700.00
 RHO, KG/CU M    1.2963-2 1.2934-2 1.2906-2 1.2878-2 1.2851-2 1.2823-2 1.2796-2 1.4789-2
 H, KJ/KG        315875.7 316286.8 316694.5 317098.7 317499.5 317897.1 318291.3 310863.4
 U, KJ/KG        269588.8 269898.7 270205.4 270508.9 270809.4 271106.8 271401.2 265559.6
 G, KJ/KG       -597913.9-599495.2-601077.2-602660.0-604243.4-605827.5-607412.2-580281.6
 S, KJ/(KG)(K)   158.0951 158.1662 158.2365 158.3061 158.3751 158.4433 158.5109 156.3412

 M, (1/n)           1.038    1.038    1.037    1.037    1.036    1.036    1.036    1.046
 (dLV/dLP)t      -1.02752 -1.02713 -1.02674 -1.02636 -1.02599 -1.02562 -1.02526 -1.03384
 (dLV/dLT)p        1.2663   1.2621   1.2579   1.2538   1.2498   1.2458   1.2420   1.3320
 Cp, KJ/(KG)(K)   41.2923  40.9391  40.5922  40.2517  39.9172  39.5888  39.2664  46.5401
 GAMMAs            1.3956   1.3978   1.4000   1.4022   1.4044   1.4065   1.4087   1.3683
 SON VEL,M/SEC     8037.3   8052.4   8067.5   8082.5   8097.5   8112.5   8127.5   7873.4

 TRANSPORT PROPERTIES (GASES ONLY)
   CONDUCTIVITY IN UNITS OF MILLIWATTS/(CM)(K)

 VISC,MILLIPOISE  0.64997  0.65042  0.65087  0.65133  0.65180  0.65228  0.65276  0.65086

  WITH EQUILIBRIUM REACTIONS

 Cp, KJ/(KG)(K)   41.2923  40.9391  40.5922  40.2517  39.9172  39.5888  39.2664  46.5401
 CONDUCTIVITY     43.7946  43.4255  43.0632  42.7077  42.3588  42.0164  41.6805  49.7281
 PRANDTL NUMBER    0.6128   0.6132   0.6135   0.6139   0.6142   0.6146   0.6150   0.6091

  WITH FROZEN REACTIONS

 Cp, KJ/(KG)(K)   20.6291  20.6293  20.6294  20.6296  20.6297  20.6299  20.6300  20.6278
 CONDUCTIVITY     19.6432  19.6632  19.6834  19.7037  19.7242  19.7449  19.7656  19.5668
 PRANDTL NUMBER    0.6826   0.6824   0.6822   0.6819   0.6817   0.6815   0.6813   0.6861

 MOLE FRACTIONS

 *e-              0.00001  0.00001  0.00001  0.00001  0.00002  0.00002  0.00002  0.00001
 *H               0.96988  0.97034  0.97081  0.97126  0.97170  0.97214  0.97257  0.96210
 *H+              0.00001  0.00001  0.00001  0.00001  0.00002  0.00002  0.00002  0.00001
 *H2              0.03010  0.02963  0.02917  0.02871  0.02827  0.02783  0.02740  0.03788

  * THERMODYNAMIC PROPERTIES FITTED TO 20000.K

 NOTE. WEIGHT FRACTION OF FUEL IN TOTAL FUELS AND OF OXIDANT IN TOTAL OXIDANTS









               THERMODYNAMIC EQUILIBRIUM PROPERTIES AT ASSIGNED

                           TEMPERATURE AND PRESSURE

 CASE =                

             REACTANT                    WT FRACTION      ENERGY      TEMP
                                          (SEE NOTE)     KJ/KG-MOL      K  
             H2                           1.0000000         0.000      0.000

 O/F=    0.00000  %FUEL=100.000000  R,EQ.RATIO= 0.000000  PHI,EQ.RATIO= 0.000000

 THERMODYNAMIC PROPERTIES

 P, BAR            6.7000   6.7000   6.7000   6.7000   6.7000   6.7000   6.7000   6.7000
 T, K             5710.00  5720.00  5730.00  5740.00  5750.00  5760.00  5770.00  5780.00
 RHO, KG/CU M    1.4755-2 1.4720-2 1.4687-2 1.4653-2 1.4620-2 1.4587-2 1.4554-2 1.4521-2
 H, KJ/KG        311326.6 311785.4 312240.1 312690.5 313136.8 313579.1 314017.3 314451.7
 U, KJ/KG        265917.1 266270.7 266620.3 266966.1 267308.1 267646.3 267981.0 268312.0
 G, KJ/KG       -581845.4-583410.0-584975.5-586541.7-588108.7-589676.4-591245.0-592814.3
 S, KJ/(KG)(K)   156.4224 156.5027 156.5821 156.6607 156.7383 156.8152 156.8912 156.9664

 M, (1/n)           1.046    1.045    1.044    1.044    1.043    1.043    1.042    1.042
 (dLV/dLP)t      -1.03336 -1.03290 -1.03243 -1.03198 -1.03153 -1.03109 -1.03065 -1.03022
 (dLV/dLT)p        1.3268   1.3217   1.3166   1.3116   1.3067   1.3019   1.2971   1.2925
 Cp, KJ/(KG)(K)   46.1029  45.6731  45.2507  44.8355  44.4275  44.0266  43.6325  43.2453
 GAMMAs            1.3704   1.3725   1.3747   1.3768   1.3789   1.3810   1.3832   1.3853
 SON VEL,M/SEC     7888.6   7903.9   7919.1   7934.3   7949.4   7964.6   7979.7   7994.8

 TRANSPORT PROPERTIES (GASES ONLY)
   CONDUCTIVITY IN UNITS OF MILLIWATTS/(CM)(K)

 VISC,MILLIPOISE  0.65119  0.65153  0.65188  0.65224  0.65261  0.65298  0.65337  0.65376

  WITH EQUILIBRIUM REACTIONS

 Cp, KJ/(KG)(K)   46.1029  45.6731  45.2507  44.8355  44.4275  44.0266  43.6325  43.2453
 CONDUCTIVITY     49.2644  48.8089  48.3613  47.9217  47.4898  47.0656  46.6489  46.2397
 PRANDTL NUMBER    0.6094   0.6097   0.6100   0.6102   0.6105   0.6108   0.6111   0.6114

  WITH FROZEN REACTIONS

 Cp, KJ/(KG)(K)   20.6281  20.6283  20.6286  20.6289  20.6291  20.6293  20.6295  20.6297
 CONDUCTIVITY     19.5846  19.6027  19.6209  19.6392  19.6578  19.6765  19.6953  19.7144
 PRANDTL NUMBER    0.6859   0.6856   0.6854   0.6851   0.6849   0.6846   0.6844   0.6841

 MOLE FRACTIONS

 *e-              0.00001  0.00001  0.00001  0.00001  0.00001  0.00001  0.00001  0.00001
 *H               0.96270  0.96328  0.96386  0.96443  0.96498  0.96553  0.96607  0.96659
 *H+              0.00001  0.00001  0.00001  0.00001  0.00001  0.00001  0.00001  0.00001
 *H2              0.03728  0.03669  0.03612  0.03555  0.03499  0.03445  0.03391  0.03338

  * THERMODYNAMIC PROPERTIES FITTED TO 20000.K

 NOTE. WEIGHT FRACTION OF FUEL IN TOTAL FUELS AND OF OXIDANT IN TOTAL OXIDANTS









               THERMODYNAMIC EQUILIBRIUM PROPERTIES AT ASSIGNED

                           TEMPERATURE AND PRESSURE

 CASE =                

             REACTANT                    WT FRACTION      ENERGY      TEMP
                                          (SEE NOTE)     KJ/KG-MOL      K  
             H2                           1.0000000         0.000      0.000

 O/F=    0.00000  %FUEL=100.000000  R,EQ.RATIO= 0.000000  PHI,EQ.RATIO= 0.000000

 THERMODYNAMIC PROPERTIES

 P, BAR            6.7000   6.7000   6.7000   6.7000   6.7000   6.7000   7.4000   7.4000
 T, K             5790.00  5800.00  5810.00  5820.00  5830.00  5840.00  5700.00  5710.00
 RHO, KG/CU M    1.4489-2 1.4457-2 1.4425-2 1.4393-2 1.4362-2 1.4331-2 1.6392-2 1.6353-2
 H, KJ/KG        314882.3 315309.0 315732.1 316151.5 316567.4 316979.7 309308.9 309792.8
 U, KJ/KG        268639.5 268963.6 269284.3 269601.6 269915.7 270226.5 264163.6 264540.0
 G, KJ/KG       -594384.3-595955.1-597526.6-599098.8-600671.8-602245.4-575787.4-577340.6
 S, KJ/(KG)(K)   157.0409 157.1145 157.1874 157.2595 157.3309 157.4016 155.2801 155.3649

 M, (1/n)           1.041    1.041    1.040    1.040    1.039    1.039    1.050    1.049
 (dLV/dLP)t      -1.02980 -1.02938 -1.02897 -1.02857 -1.02817 -1.02778 -1.03669 -1.03619
 (dLV/dLT)p        1.2879   1.2834   1.2789   1.2746   1.2703   1.2661   1.3600   1.3544
 Cp, KJ/(KG)(K)   42.8649  42.4910  42.1237  41.7629  41.4083  41.0600  48.6230  48.1592
 GAMMAs            1.3874   1.3896   1.3917   1.3939   1.3960   1.3981   1.3598   1.3619
 SON VEL,M/SEC     8009.9   8025.0   8040.0   8055.0   8070.0   8085.0   7835.1   7850.3

 TRANSPORT PROPERTIES (GASES ONLY)
   CONDUCTIVITY IN UNITS OF MILLIWATTS/(CM)(K)

 VISC,MILLIPOISE  0.65417  0.65458  0.65500  0.65542  0.65586  0.65630  0.65490  0.65518

  WITH EQUILIBRIUM REACTIONS

 Cp, KJ/(KG)(K)   42.8649  42.4910  42.1237  41.7629  41.4083  41.0600  48.6230  48.1592
 CONDUCTIVITY     45.8377  45.4431  45.0555  44.6749  44.3012  43.9342  52.3481  51.8516
 PRANDTL NUMBER    0.6117   0.6121   0.6124   0.6127   0.6130   0.6134   0.6083   0.6085

  WITH FROZEN REACTIONS

 Cp, KJ/(KG)(K)   20.6299  20.6301  20.6303  20.6305  20.6306  20.6307  20.6282  20.6285
 CONDUCTIVITY     19.7336  19.7530  19.7725  19.7921  19.8120  19.8320  19.6434  19.6603
 PRANDTL NUMBER    0.6839   0.6836   0.6834   0.6832   0.6830   0.6827   0.6877   0.6874

 MOLE FRACTIONS

 *e-              0.00001  0.00001  0.00001  0.00001  0.00001  0.00002  0.00001  0.00001
 *H               0.96711  0.96762  0.96812  0.96861  0.96909  0.96956  0.95846  0.95911
 *H+              0.00001  0.00001  0.00001  0.00001  0.00001  0.00002  0.00001  0.00001
 *H2              0.03286  0.03235  0.03185  0.03136  0.03088  0.03041  0.04152  0.04087

  * THERMODYNAMIC PROPERTIES FITTED TO 20000.K

 NOTE. WEIGHT FRACTION OF FUEL IN TOTAL FUELS AND OF OXIDANT IN TOTAL OXIDANTS









               THERMODYNAMIC EQUILIBRIUM PROPERTIES AT ASSIGNED

                           TEMPERATURE AND PRESSURE

 CASE =                

             REACTANT                    WT FRACTION      ENERGY      TEMP
                                          (SEE NOTE)     KJ/KG-MOL      K  
             H2                           1.0000000         0.000      0.000

 O/F=    0.00000  %FUEL=100.000000  R,EQ.RATIO= 0.000000  PHI,EQ.RATIO= 0.000000

 THERMODYNAMIC PROPERTIES

 P, BAR            7.4000   7.4000   7.4000   7.4000   7.4000   7.4000   7.4000   7.4000
 T, K             5720.00  5730.00  5740.00  5750.00  5760.00  5770.00  5780.00  5790.00
 RHO, KG/CU M    1.6314-2 1.6276-2 1.6238-2 1.6200-2 1.6162-2 1.6125-2 1.6089-2 1.6052-2
 H, KJ/KG        310272.1 310746.9 311217.2 311683.2 312144.9 312602.3 313055.5 313504.7
 U, KJ/KG        264912.1 265280.1 265644.0 266003.9 266359.8 266711.9 267060.1 267404.6
 G, KJ/KG       -578894.7-580449.6-582005.3-583561.9-585119.2-586677.4-588236.3-589796.0
 S, KJ/(KG)(K)   155.4487 155.5317 155.6137 155.6948 155.7750 155.8544 155.9328 156.0105

 M, (1/n)           1.048    1.048    1.047    1.047    1.046    1.045    1.045    1.044
 (dLV/dLP)t      -1.03569 -1.03520 -1.03471 -1.03423 -1.03376 -1.03330 -1.03284 -1.03239
 (dLV/dLT)p        1.3490   1.3435   1.3382   1.3330   1.3278   1.3228   1.3178   1.3129
 Cp, KJ/(KG)(K)   47.7031  47.2544  46.8132  46.3794  45.9527  45.5332  45.1208  44.7153
 GAMMAs            1.3639   1.3660   1.3680   1.3701   1.3722   1.3742   1.3763   1.3784
 SON VEL,M/SEC     7865.5   7880.7   7895.9   7911.0   7926.2   7941.3   7956.4   7971.5

 TRANSPORT PROPERTIES (GASES ONLY)
   CONDUCTIVITY IN UNITS OF MILLIWATTS/(CM)(K)

 VISC,MILLIPOISE  0.65548  0.65579  0.65611  0.65643  0.65677  0.65711  0.65746  0.65783

  WITH EQUILIBRIUM REACTIONS

 Cp, KJ/(KG)(K)   47.7031  47.2544  46.8132  46.3794  45.9527  45.5332  45.1208  44.7153
 CONDUCTIVITY     51.3635  50.8837  50.4120  49.9484  49.4928  49.0450  48.6049  48.1724
 PRANDTL NUMBER    0.6088   0.6090   0.6093   0.6095   0.6098   0.6101   0.6103   0.6106

  WITH FROZEN REACTIONS

 Cp, KJ/(KG)(K)   20.6288  20.6291  20.6294  20.6297  20.6299  20.6302  20.6304  20.6306
 CONDUCTIVITY     19.6775  19.6948  19.7124  19.7301  19.7480  19.7660  19.7842  19.8026
 PRANDTL NUMBER    0.6872   0.6869   0.6866   0.6864   0.6861   0.6858   0.6856   0.6853

 MOLE FRACTIONS

 *e-              0.00001  0.00001  0.00001  0.00001  0.00001  0.00001  0.00001  0.00001
 *H               0.95975  0.96038  0.96099  0.96160  0.96219  0.96278  0.96335  0.96392
 *H+              0.00001  0.00001  0.00001  0.00001  0.00001  0.00001  0.00001  0.00001
 *H2              0.04023  0.03960  0.03898  0.03838  0.03778  0.03720  0.03662  0.03606

  * THERMODYNAMIC PROPERTIES FITTED TO 20000.K

 NOTE. WEIGHT FRACTION OF FUEL IN TOTAL FUELS AND OF OXIDANT IN TOTAL OXIDANTS









               THERMODYNAMIC EQUILIBRIUM PROPERTIES AT ASSIGNED

                           TEMPERATURE AND PRESSURE

 CASE =                

             REACTANT                    WT FRACTION      ENERGY      TEMP
                                          (SEE NOTE)     KJ/KG-MOL      K  
             H2                           1.0000000         0.000      0.000

 O/F=    0.00000  %FUEL=100.000000  R,EQ.RATIO= 0.000000  PHI,EQ.RATIO= 0.000000

 THERMODYNAMIC PROPERTIES

 P, BAR            7.4000   7.4000   7.4000   7.4000   7.4000   8.2500   8.2500   8.2500
 T, K             5800.00  5810.00  5820.00  5830.00  5840.00  5700.00  5710.00  5720.00
 RHO, KG/CU M    1.6016-2 1.5980-2 1.5944-2 1.5909-2 1.5873-2 1.8351-2 1.8306-2 1.8262-2
 H, KJ/KG        313949.9 314391.1 314828.4 315261.9 315691.6 307466.3 307974.1 308477.0
 U, KJ/KG        267745.4 268082.5 268416.1 268746.2 269072.9 262508.8 262906.9 263300.6
 G, KJ/KG       -591356.5-592917.8-594479.8-596042.5-597606.0-570888.7-572430.1-573972.4
 S, KJ/(KG)(K)   156.0873 156.1633 156.2385 156.3129 156.3866 154.0974 154.1864 154.2744

 M, (1/n)           1.044    1.043    1.043    1.042    1.042    1.054    1.053    1.053
 (dLV/dLP)t      -1.03194 -1.03150 -1.03107 -1.03064 -1.03022 -1.04002 -1.03948 -1.03895
 (dLV/dLT)p        1.3080   1.3033   1.2986   1.2940   1.2895   1.3926   1.3867   1.3808
 Cp, KJ/(KG)(K)   44.3166  43.9247  43.5395  43.1608  42.7886  51.0282  50.5356  50.0507
 GAMMAs            1.3805   1.3826   1.3847   1.3868   1.3889   1.3509   1.3529   1.3548
 SON VEL,M/SEC     7986.5   8001.6   8016.6   8031.6   8046.5   7793.1   7808.3   7823.5

 TRANSPORT PROPERTIES (GASES ONLY)
   CONDUCTIVITY IN UNITS OF MILLIWATTS/(CM)(K)

 VISC,MILLIPOISE  0.65820  0.65858  0.65896  0.65936  0.65976  0.65966  0.65990  0.66014

  WITH EQUILIBRIUM REACTIONS

 Cp, KJ/(KG)(K)   44.3166  43.9247  43.5395  43.1608  42.7886  51.0282  50.5356  50.0507
 CONDUCTIVITY     47.7475  47.3299  46.9197  46.5166  46.1207  55.4018  54.8689  54.3446
 PRANDTL NUMBER    0.6109   0.6112   0.6115   0.6118   0.6121   0.6076   0.6078   0.6080

  WITH FROZEN REACTIONS

 Cp, KJ/(KG)(K)   20.6308  20.6310  20.6312  20.6313  20.6315  20.6288  20.6291  20.6294
 CONDUCTIVITY     19.8212  19.8399  19.8588  19.8779  19.8971  19.7342  19.7501  19.7663
 PRANDTL NUMBER    0.6851   0.6848   0.6846   0.6843   0.6841   0.6896   0.6893   0.6890

 MOLE FRACTIONS

 *e-              0.00001  0.00001  0.00001  0.00001  0.00001  0.00001  0.00001  0.00001
 *H               0.96447  0.96502  0.96555  0.96607  0.96659  0.95411  0.95482  0.95552
 *H+              0.00001  0.00001  0.00001  0.00001  0.00001  0.00001  0.00001  0.00001
 *H2              0.03550  0.03496  0.03442  0.03390  0.03338  0.04587  0.04516  0.04446

  * THERMODYNAMIC PROPERTIES FITTED TO 20000.K

 NOTE. WEIGHT FRACTION OF FUEL IN TOTAL FUELS AND OF OXIDANT IN TOTAL OXIDANTS









               THERMODYNAMIC EQUILIBRIUM PROPERTIES AT ASSIGNED

                           TEMPERATURE AND PRESSURE

 CASE =                

             REACTANT                    WT FRACTION      ENERGY      TEMP
                                          (SEE NOTE)     KJ/KG-MOL      K  
             H2                           1.0000000         0.000      0.000

 O/F=    0.00000  %FUEL=100.000000  R,EQ.RATIO= 0.000000  PHI,EQ.RATIO= 0.000000

 THERMODYNAMIC PROPERTIES

 P, BAR            8.2500   8.2500   8.2500   8.2500   8.2500   8.2500   8.2500   8.2500
 T, K             5730.00  5740.00  5750.00  5760.00  5770.00  5780.00  5790.00  5800.00
 RHO, KG/CU M    1.8218-2 1.8174-2 1.8131-2 1.8088-2 1.8046-2 1.8004-2 1.7962-2 1.7920-2
 H, KJ/KG        308975.1 309468.5 309957.2 310441.4 310921.0 311396.2 311867.0 312333.5
 U, KJ/KG        263689.9 264074.8 264455.4 264831.8 265204.1 265572.2 265936.4 266296.7
 G, KJ/KG       -575515.6-577059.6-578604.5-580150.3-581696.9-583244.3-584792.5-586341.5
 S, KJ/(KG)(K)   154.3614 154.4474 154.5325 154.6166 154.6998 154.7821 154.8635 154.9440

 M, (1/n)           1.052    1.051    1.051    1.050    1.049    1.049    1.048    1.048
 (dLV/dLP)t      -1.03842 -1.03790 -1.03739 -1.03689 -1.03639 -1.03590 -1.03542 -1.03494
 (dLV/dLT)p        1.3750   1.3693   1.3637   1.3582   1.3527   1.3474   1.3421   1.3369
 Cp, KJ/(KG)(K)   49.5735  49.1038  48.6416  48.1868  47.7393  47.2991  46.8659  46.4399
 GAMMAs            1.3568   1.3588   1.3608   1.3628   1.3648   1.3669   1.3689   1.3709
 SON VEL,M/SEC     7838.7   7853.8   7868.9   7884.0   7899.1   7914.2   7929.3   7944.3

 TRANSPORT PROPERTIES (GASES ONLY)
   CONDUCTIVITY IN UNITS OF MILLIWATTS/(CM)(K)

 VISC,MILLIPOISE  0.66040  0.66067  0.66095  0.66124  0.66153  0.66184  0.66215  0.66248

  WITH EQUILIBRIUM REACTIONS

 Cp, KJ/(KG)(K)   49.5735  49.1038  48.6416  48.1868  47.7393  47.2991  46.8659  46.4399
 CONDUCTIVITY     53.8289  53.3215  52.8225  52.3318  51.8491  51.3744  50.9077  50.4487
 PRANDTL NUMBER    0.6082   0.6084   0.6086   0.6089   0.6091   0.6093   0.6096   0.6098

  WITH FROZEN REACTIONS

 Cp, KJ/(KG)(K)   20.6298  20.6301  20.6304  20.6306  20.6309  20.6311  20.6314  20.6316
 CONDUCTIVITY     19.7827  19.7992  19.8159  19.8329  19.8500  19.8673  19.8847  19.9024
 PRANDTL NUMBER    0.6887   0.6884   0.6881   0.6878   0.6876   0.6873   0.6870   0.6868

 MOLE FRACTIONS

 *e-              0.00001  0.00001  0.00001  0.00001  0.00001  0.00001  0.00001  0.00001
 *H               0.95621  0.95689  0.95755  0.95820  0.95885  0.95948  0.96009  0.96070
 *H+              0.00001  0.00001  0.00001  0.00001  0.00001  0.00001  0.00001  0.00001
 *H2              0.04377  0.04309  0.04243  0.04177  0.04113  0.04050  0.03988  0.03927

  * THERMODYNAMIC PROPERTIES FITTED TO 20000.K

 NOTE. WEIGHT FRACTION OF FUEL IN TOTAL FUELS AND OF OXIDANT IN TOTAL OXIDANTS









               THERMODYNAMIC EQUILIBRIUM PROPERTIES AT ASSIGNED

                           TEMPERATURE AND PRESSURE

 CASE =                

             REACTANT                    WT FRACTION      ENERGY      TEMP
                                          (SEE NOTE)     KJ/KG-MOL      K  
             H2                           1.0000000         0.000      0.000

 O/F=    0.00000  %FUEL=100.000000  R,EQ.RATIO= 0.000000  PHI,EQ.RATIO= 0.000000

 THERMODYNAMIC PROPERTIES

 P, BAR            8.2500   8.2500   8.2500   8.2500   9.1000   9.1000   9.1000   9.1000
 T, K             5810.00  5820.00  5830.00  5840.00  5700.00  5710.00  5720.00  5730.00
 RHO, KG/CU M    1.7879-2 1.7838-2 1.7798-2 1.7758-2 2.0324-2 2.0274-2 2.0223-2 2.0174-2
 H, KJ/KG        312795.8 313254.0 313708.0 314158.0 305670.9 306201.4 306726.7 307246.9
 U, KJ/KG        266653.0 267005.5 267354.3 267699.4 260896.4 261315.2 261729.3 262138.7
 G, KJ/KG       -587891.4-589442.0-590993.4-592545.6-566489.0-568019.5-569551.0-571083.4
 S, KJ/(KG)(K)   155.0236 155.1024 155.1804 155.2575 153.0105 153.1035 153.1954 153.2863

 M, (1/n)           1.047    1.046    1.046    1.045    1.058    1.058    1.057    1.056
 (dLV/dLP)t      -1.03447 -1.03400 -1.03355 -1.03310 -1.04320 -1.04263 -1.04207 -1.04151
 (dLV/dLT)p        1.3318   1.3268   1.3218   1.3170   1.4238   1.4175   1.4113   1.4051
 Cp, KJ/(KG)(K)   46.0207  45.6084  45.2030  44.8041  53.3054  52.7874  52.2771  51.7745
 GAMMAs            1.3729   1.3750   1.3770   1.3790   1.3432   1.3452   1.3471   1.3490
 SON VEL,M/SEC     7959.3   7974.3   7989.3   8004.3   7755.2   7770.4   7785.5   7800.6

 TRANSPORT PROPERTIES (GASES ONLY)
   CONDUCTIVITY IN UNITS OF MILLIWATTS/(CM)(K)

 VISC,MILLIPOISE  0.66281  0.66315  0.66350  0.66386  0.66426  0.66446  0.66466  0.66487

  WITH EQUILIBRIUM REACTIONS

 Cp, KJ/(KG)(K)   46.0207  45.6084  45.2030  44.8041  53.3054  52.7874  52.2771  51.7745
 CONDUCTIVITY     49.9975  49.5538  49.1177  48.6889  58.3226  57.7568  57.1998  56.6515
 PRANDTL NUMBER    0.6101   0.6104   0.6106   0.6109   0.6071   0.6073   0.6075   0.6076

  WITH FROZEN REACTIONS

 Cp, KJ/(KG)(K)   20.6318  20.6320  20.6322  20.6324  20.6293  20.6297  20.6300  20.6304
 CONDUCTIVITY     19.9202  19.9382  19.9564  19.9747  19.8226  19.8377  19.8529  19.8683
 PRANDTL NUMBER    0.6865   0.6862   0.6860   0.6857   0.6913   0.6910   0.6907   0.6904

 MOLE FRACTIONS

 *e-              0.00001  0.00001  0.00001  0.00001  0.00001  0.00001  0.00001  0.00001
 *H               0.96130  0.96189  0.96246  0.96303  0.94984  0.95061  0.95137  0.95212
 *H+              0.00001  0.00001  0.00001  0.00001  0.00001  0.00001  0.00001  0.00001
 *H2              0.03867  0.03809  0.03751  0.03694  0.05015  0.04937  0.04861  0.04786

  * THERMODYNAMIC PROPERTIES FITTED TO 20000.K

 NOTE. WEIGHT FRACTION OF FUEL IN TOTAL FUELS AND OF OXIDANT IN TOTAL OXIDANTS









               THERMODYNAMIC EQUILIBRIUM PROPERTIES AT ASSIGNED

                           TEMPERATURE AND PRESSURE

 CASE =                

             REACTANT                    WT FRACTION      ENERGY      TEMP
                                          (SEE NOTE)     KJ/KG-MOL      K  
             H2                           1.0000000         0.000      0.000

 O/F=    0.00000  %FUEL=100.000000  R,EQ.RATIO= 0.000000  PHI,EQ.RATIO= 0.000000

 THERMODYNAMIC PROPERTIES

 P, BAR            9.1000   9.1000   9.1000   9.1000   9.1000   9.1000   9.1000   9.1000
 T, K             5740.00  5750.00  5760.00  5770.00  5780.00  5790.00  5800.00  5810.00
 RHO, KG/CU M    2.0124-2 2.0076-2 2.0027-2 1.9979-2 1.9931-2 1.9884-2 1.9837-2 1.9791-2
 H, KJ/KG        307762.2 308272.6 308778.1 309278.8 309774.9 310266.3 310753.2 311235.7
 U, KJ/KG        262543.6 262943.9 263339.8 263731.3 264118.5 264501.5 264880.2 265254.9
 G, KJ/KG       -572616.8-574151.0-575686.0-577222.0-578758.8-580296.5-581835.0-583374.4
 S, KJ/(KG)(K)   153.3761 153.4650 153.5528 153.6397 153.7256 153.8105 153.8945 153.9776

 M, (1/n)           1.055    1.055    1.054    1.053    1.053    1.052    1.051    1.051
 (dLV/dLP)t      -1.04096 -1.04042 -1.03989 -1.03936 -1.03884 -1.03833 -1.03782 -1.03732
 (dLV/dLT)p        1.3991   1.3932   1.3873   1.3815   1.3758   1.3702   1.3647   1.3593
 Cp, KJ/(KG)(K)   51.2795  50.7921  50.3122  49.8397  49.3745  48.9166  48.4658  48.0221
 GAMMAs            1.3509   1.3528   1.3548   1.3567   1.3587   1.3606   1.3626   1.3646
 SON VEL,M/SEC     7815.8   7830.9   7845.9   7861.0   7876.0   7891.1   7906.1   7921.1

 TRANSPORT PROPERTIES (GASES ONLY)
   CONDUCTIVITY IN UNITS OF MILLIWATTS/(CM)(K)

 VISC,MILLIPOISE  0.66510  0.66533  0.66557  0.66583  0.66609  0.66636  0.66664  0.66693

  WITH EQUILIBRIUM REACTIONS

 Cp, KJ/(KG)(K)   51.2795  50.7921  50.3122  49.8397  49.3745  48.9166  48.4658  48.0221
 CONDUCTIVITY     56.1118  55.5805  55.0577  54.5432  54.0368  53.5387  53.0485  52.5662
 PRANDTL NUMBER    0.6078   0.6080   0.6082   0.6084   0.6086   0.6088   0.6091   0.6093

  WITH FROZEN REACTIONS

 Cp, KJ/(KG)(K)   20.6307  20.6310  20.6313  20.6316  20.6319  20.6321  20.6324  20.6326
 CONDUCTIVITY     19.8840  19.8998  19.9158  19.9320  19.9484  19.9650  19.9818  19.9987
 PRANDTL NUMBER    0.6901   0.6898   0.6895   0.6892   0.6889   0.6886   0.6883   0.6881

 MOLE FRACTIONS

 *e-              0.00001  0.00001  0.00001  0.00001  0.00001  0.00001  0.00001  0.00001
 *H               0.95285  0.95357  0.95428  0.95498  0.95566  0.95633  0.95699  0.95764
 *H+              0.00001  0.00001  0.00001  0.00001  0.00001  0.00001  0.00001  0.00001
 *H2              0.04713  0.04641  0.04570  0.04500  0.04432  0.04365  0.04298  0.04233

  * THERMODYNAMIC PROPERTIES FITTED TO 20000.K

 NOTE. WEIGHT FRACTION OF FUEL IN TOTAL FUELS AND OF OXIDANT IN TOTAL OXIDANTS









               THERMODYNAMIC EQUILIBRIUM PROPERTIES AT ASSIGNED

                           TEMPERATURE AND PRESSURE

 CASE =                

             REACTANT                    WT FRACTION      ENERGY      TEMP
                                          (SEE NOTE)     KJ/KG-MOL      K  
             H2                           1.0000000         0.000      0.000

 O/F=    0.00000  %FUEL=100.000000  R,EQ.RATIO= 0.000000  PHI,EQ.RATIO= 0.000000

 THERMODYNAMIC PROPERTIES

 P, BAR            9.1000   9.1000   9.1000   10.000   10.000   10.000   10.000   10.000
 T, K             5820.00  5830.00  5840.00  5700.00  5710.00  5720.00  5730.00  5740.00
 RHO, KG/CU M    1.9745-2 1.9699-2 1.9654-2 2.2429-2 2.2372-2 2.2315-2 2.2259-2 2.2204-2
 H, KJ/KG        311713.7 312187.4 312656.8 303819.2 304372.3 304920.1 305462.6 305999.8
 U, KJ/KG        265625.6 265992.2 266355.0 259233.4 259672.9 260107.5 260537.2 260962.1
 G, KJ/KG       -584914.6-586455.6-587997.4-562275.0-563795.0-565315.9-566837.8-568360.6
 S, KJ/(KG)(K)   154.0598 154.1412 154.2216 151.9464 152.0433 152.1392 152.2339 152.3276

 M, (1/n)           1.050    1.049    1.049    1.063    1.062    1.061    1.060    1.060
 (dLV/dLP)t      -1.03683 -1.03634 -1.03586 -1.04641 -1.04581 -1.04522 -1.04464 -1.04407
 (dLV/dLT)p        1.3539   1.3486   1.3435   1.4553   1.4487   1.4421   1.4357   1.4293
 Cp, KJ/(KG)(K)   47.5854  47.1556  46.7326  55.5861  55.0445  54.5106  53.9844  53.4658
 GAMMAs            1.3665   1.3685   1.3705   1.3362   1.3381   1.3399   1.3418   1.3436
 SON VEL,M/SEC     7936.1   7951.0   7966.0   7718.6   7733.8   7748.9   7764.0   7779.1

 TRANSPORT PROPERTIES (GASES ONLY)
   CONDUCTIVITY IN UNITS OF MILLIWATTS/(CM)(K)

 VISC,MILLIPOISE  0.66723  0.66754  0.66786  0.66898  0.66913  0.66929  0.66946  0.66964

  WITH EQUILIBRIUM REACTIONS

 Cp, KJ/(KG)(K)   47.5854  47.1556  46.7326  55.5861  55.0445  54.5106  53.9844  53.4658
 CONDUCTIVITY     52.0918  51.6252  51.1661  61.2787  60.6816  60.0933  59.5138  58.9430
 PRANDTL NUMBER    0.6095   0.6097   0.6100   0.6068   0.6070   0.6071   0.6073   0.6074

  WITH FROZEN REACTIONS

 Cp, KJ/(KG)(K)   20.6328  20.6330  20.6332  20.6298  20.6302  20.6306  20.6310  20.6314
 CONDUCTIVITY     20.0159  20.0332  20.0507  19.9139  19.9280  19.9423  19.9568  19.9715
 PRANDTL NUMBER    0.6878   0.6875   0.6873   0.6930   0.6927   0.6924   0.6921   0.6918

 MOLE FRACTIONS

 *e-              0.00001  0.00001  0.00001  0.00001  0.00001  0.00001  0.00001  0.00001
 *H               0.95828  0.95891  0.95952  0.94539  0.94623  0.94705  0.94785  0.94865
 *H+              0.00001  0.00001  0.00001  0.00001  0.00001  0.00001  0.00001  0.00001
 *H2              0.04170  0.04107  0.04045  0.05459  0.05376  0.05293  0.05213  0.05134

  * THERMODYNAMIC PROPERTIES FITTED TO 20000.K

 NOTE. WEIGHT FRACTION OF FUEL IN TOTAL FUELS AND OF OXIDANT IN TOTAL OXIDANTS









               THERMODYNAMIC EQUILIBRIUM PROPERTIES AT ASSIGNED

                           TEMPERATURE AND PRESSURE

 CASE =                

             REACTANT                    WT FRACTION      ENERGY      TEMP
                                          (SEE NOTE)     KJ/KG-MOL      K  
             H2                           1.0000000         0.000      0.000

 O/F=    0.00000  %FUEL=100.000000  R,EQ.RATIO= 0.000000  PHI,EQ.RATIO= 0.000000

 THERMODYNAMIC PROPERTIES

 P, BAR            10.000   10.000   10.000   10.000   10.000   10.000   10.000   10.000
 T, K             5750.00  5760.00  5770.00  5780.00  5790.00  5800.00  5810.00  5820.00
 RHO, KG/CU M    2.2149-2 2.2094-2 2.2040-2 2.1986-2 2.1933-2 2.1880-2 2.1828-2 2.1776-2
 H, KJ/KG        306531.9 307058.9 307581.0 308098.1 308610.3 309117.8 309620.6 310118.7
 U, KJ/KG        261382.3 261797.7 262208.6 262615.0 263016.9 263414.4 263807.6 264196.5
 G, KJ/KG       -569884.3-571409.0-572934.6-574461.0-575988.4-577516.6-579045.7-580575.7
 S, KJ/(KG)(K)   152.4202 152.5118 152.6023 152.6919 152.7804 152.8680 152.9546 153.0403

 M, (1/n)           1.059    1.058    1.057    1.057    1.056    1.055    1.054    1.054
 (dLV/dLP)t      -1.04350 -1.04294 -1.04238 -1.04183 -1.04129 -1.04076 -1.04023 -1.03971
 (dLV/dLT)p        1.4230   1.4169   1.4108   1.4048   1.3988   1.3930   1.3872   1.3816
 Cp, KJ/(KG)(K)   52.9547  52.4512  51.9551  51.4664  50.9849  50.5107  50.0436  49.5836
 GAMMAs            1.3455   1.3474   1.3492   1.3511   1.3530   1.3549   1.3568   1.3588
 SON VEL,M/SEC     7794.1   7809.2   7824.2   7839.3   7854.3   7869.3   7884.2   7899.2

 TRANSPORT PROPERTIES (GASES ONLY)
   CONDUCTIVITY IN UNITS OF MILLIWATTS/(CM)(K)

 VISC,MILLIPOISE  0.66983  0.67003  0.67024  0.67046  0.67069  0.67092  0.67117  0.67143

  WITH EQUILIBRIUM REACTIONS

 Cp, KJ/(KG)(K)   52.9547  52.4512  51.9551  51.4664  50.9849  50.5107  50.0436  49.5836
 CONDUCTIVITY     58.3808  57.8272  57.2819  56.7451  56.2165  55.6960  55.1837  54.6794
 PRANDTL NUMBER    0.6076   0.6077   0.6079   0.6081   0.6083   0.6085   0.6087   0.6089

  WITH FROZEN REACTIONS

 Cp, KJ/(KG)(K)   20.6317  20.6320  20.6323  20.6326  20.6329  20.6332  20.6334  20.6337
 CONDUCTIVITY     19.9864  20.0015  20.0169  20.0324  20.0481  20.0640  20.0801  20.0963
 PRANDTL NUMBER    0.6915   0.6911   0.6908   0.6905   0.6903   0.6900   0.6897   0.6894

 MOLE FRACTIONS

 *e-              0.00001  0.00001  0.00001  0.00001  0.00001  0.00001  0.00001  0.00001
 *H               0.94942  0.95019  0.95094  0.95168  0.95241  0.95312  0.95383  0.95452
 *H+              0.00001  0.00001  0.00001  0.00001  0.00001  0.00001  0.00001  0.00001
 *H2              0.05056  0.04979  0.04904  0.04830  0.04757  0.04685  0.04615  0.04546

  * THERMODYNAMIC PROPERTIES FITTED TO 20000.K

 NOTE. WEIGHT FRACTION OF FUEL IN TOTAL FUELS AND OF OXIDANT IN TOTAL OXIDANTS









               THERMODYNAMIC EQUILIBRIUM PROPERTIES AT ASSIGNED

                           TEMPERATURE AND PRESSURE

 CASE =                

             REACTANT                    WT FRACTION      ENERGY      TEMP
                                          (SEE NOTE)     KJ/KG-MOL      K  
             H2                           1.0000000         0.000      0.000

 O/F=    0.00000  %FUEL=100.000000  R,EQ.RATIO= 0.000000  PHI,EQ.RATIO= 0.000000

 THERMODYNAMIC PROPERTIES

 P, BAR            10.000   10.000   11.000   11.000   11.000   11.000   11.000   11.000
 T, K             5830.00  5840.00  5700.00  5710.00  5720.00  5730.00  5740.00  5750.00
 RHO, KG/CU M    2.1724-2 2.1673-2 2.4785-2 2.4720-2 2.4657-2 2.4593-2 2.4531-2 2.4468-2
 H, KJ/KG        310612.3 311101.3 301818.5 302395.4 302966.7 303532.5 304092.8 304647.8
 U, KJ/KG        264581.3 264961.9 257436.7 257897.9 258354.0 258804.9 259250.9 259691.8
 G, KJ/KG       -582106.6-583638.2-558035.2-559544.2-561054.2-562565.3-564077.3-565590.2
 S, KJ/(KG)(K)   153.1250 153.2088 150.8515 150.9527 151.0526 151.1514 151.2491 151.3457

 M, (1/n)           1.053    1.052    1.068    1.067    1.066    1.065    1.064    1.063
 (dLV/dLP)t      -1.03919 -1.03869 -1.04981 -1.04919 -1.04857 -1.04796 -1.04736 -1.04676
 (dLV/dLT)p        1.3760   1.3705   1.4887   1.4817   1.4748   1.4681   1.4614   1.4548
 Cp, KJ/(KG)(K)   49.1306  48.6845  57.9732  57.4090  56.8525  56.3035  55.7621  55.2281
 GAMMAs            1.3607   1.3626   1.3295   1.3313   1.3330   1.3348   1.3366   1.3384
 SON VEL,M/SEC     7914.1   7929.1   7681.5   7696.6   7711.7   7726.8   7741.9   7756.9

 TRANSPORT PROPERTIES (GASES ONLY)
   CONDUCTIVITY IN UNITS OF MILLIWATTS/(CM)(K)

 VISC,MILLIPOISE  0.67170  0.67197  0.67405  0.67415  0.67426  0.67439  0.67452  0.67466

  WITH EQUILIBRIUM REACTIONS

 Cp, KJ/(KG)(K)   49.1306  48.6845  57.9732  57.4090  56.8525  56.3035  55.7621  55.2281
 CONDUCTIVITY     54.1830  53.6944  64.4081  63.7800  63.1608  62.5503  61.9486  61.3555
 PRANDTL NUMBER    0.6091   0.6093   0.6067   0.6068   0.6069   0.6070   0.6072   0.6073

  WITH FROZEN REACTIONS

 Cp, KJ/(KG)(K)   20.6339  20.6341  20.6304  20.6309  20.6313  20.6317  20.6321  20.6325
 CONDUCTIVITY     20.1128  20.1295  20.0125  20.0256  20.0389  20.0525  20.0662  20.0802
 PRANDTL NUMBER    0.6891   0.6888   0.6949   0.6945   0.6942   0.6939   0.6935   0.6932

 MOLE FRACTIONS

 *e-              0.00001  0.00001  0.00001  0.00001  0.00001  0.00001  0.00001  0.00001
 *H               0.95519  0.95586  0.94055  0.94145  0.94233  0.94320  0.94406  0.94490
 *H+              0.00001  0.00001  0.00001  0.00001  0.00001  0.00001  0.00001  0.00001
 *H2              0.04478  0.04411  0.05944  0.05854  0.05765  0.05678  0.05592  0.05508

  * THERMODYNAMIC PROPERTIES FITTED TO 20000.K

 NOTE. WEIGHT FRACTION OF FUEL IN TOTAL FUELS AND OF OXIDANT IN TOTAL OXIDANTS









               THERMODYNAMIC EQUILIBRIUM PROPERTIES AT ASSIGNED

                           TEMPERATURE AND PRESSURE

 CASE =                

             REACTANT                    WT FRACTION      ENERGY      TEMP
                                          (SEE NOTE)     KJ/KG-MOL      K  
             H2                           1.0000000         0.000      0.000

 O/F=    0.00000  %FUEL=100.000000  R,EQ.RATIO= 0.000000  PHI,EQ.RATIO= 0.000000

 THERMODYNAMIC PROPERTIES

 P, BAR            11.000   11.000   11.000   11.000   11.000   11.000   11.000   11.000
 T, K             5760.00  5770.00  5780.00  5790.00  5800.00  5810.00  5820.00  5830.00
 RHO, KG/CU M    2.4407-2 2.4346-2 2.4285-2 2.4225-2 2.4165-2 2.4106-2 2.4048-2 2.3990-2
 H, KJ/KG        305197.4 305741.8 306281.1 306815.3 307344.5 307868.7 308388.1 308902.6
 U, KJ/KG        260128.0 260559.3 260985.8 261407.7 261825.0 262237.7 262646.0 263049.9
 G, KJ/KG       -567104.2-568619.1-570134.9-571651.6-573169.3-574687.9-576207.4-577727.7
 S, KJ/(KG)(K)   151.4412 151.5357 151.6291 151.7214 151.8127 151.9030 151.9923 152.0807

 M, (1/n)           1.063    1.062    1.061    1.060    1.059    1.059    1.058    1.057
 (dLV/dLP)t      -1.04617 -1.04559 -1.04501 -1.04445 -1.04388 -1.04333 -1.04278 -1.04224
 (dLV/dLT)p        1.4483   1.4418   1.4355   1.4293   1.4231   1.4170   1.4111   1.4052
 Cp, KJ/(KG)(K)   54.7016  54.1825  53.6707  53.1662  52.6689  52.1788  51.6958  51.2198
 GAMMAs            1.3402   1.3420   1.3439   1.3457   1.3475   1.3494   1.3512   1.3531
 SON VEL,M/SEC     7771.9   7786.9   7801.9   7816.9   7831.9   7846.9   7861.8   7876.7

 TRANSPORT PROPERTIES (GASES ONLY)
   CONDUCTIVITY IN UNITS OF MILLIWATTS/(CM)(K)

 VISC,MILLIPOISE  0.67482  0.67498  0.67516  0.67534  0.67554  0.67574  0.67596  0.67618

  WITH EQUILIBRIUM REACTIONS

 Cp, KJ/(KG)(K)   54.7016  54.1825  53.6707  53.1662  52.6689  52.1788  51.6958  51.2198
 CONDUCTIVITY     60.7710  60.1950  59.6275  59.0683  58.5174  57.9747  57.4401  56.9136
 PRANDTL NUMBER    0.6074   0.6076   0.6077   0.6079   0.6080   0.6082   0.6084   0.6085

  WITH FROZEN REACTIONS

 Cp, KJ/(KG)(K)   20.6328  20.6332  20.6335  20.6338  20.6341  20.6343  20.6346  20.6348
 CONDUCTIVITY     20.0944  20.1088  20.1233  20.1381  20.1531  20.1683  20.1837  20.1992
 PRANDTL NUMBER    0.6929   0.6926   0.6923   0.6920   0.6917   0.6914   0.6911   0.6908

 MOLE FRACTIONS

 *e-              0.00001  0.00001  0.00001  0.00001  0.00001  0.00001  0.00001  0.00001
 *H               0.94573  0.94654  0.94734  0.94812  0.94890  0.94965  0.95040  0.95114
 *H+              0.00001  0.00001  0.00001  0.00001  0.00001  0.00001  0.00001  0.00001
 *H2              0.05426  0.05344  0.05264  0.05186  0.05108  0.05032  0.04958  0.04884

  * THERMODYNAMIC PROPERTIES FITTED TO 20000.K

 NOTE. WEIGHT FRACTION OF FUEL IN TOTAL FUELS AND OF OXIDANT IN TOTAL OXIDANTS









               THERMODYNAMIC EQUILIBRIUM PROPERTIES AT ASSIGNED

                           TEMPERATURE AND PRESSURE

 CASE =                

             REACTANT                    WT FRACTION      ENERGY      TEMP
                                          (SEE NOTE)     KJ/KG-MOL      K  
             H2                           1.0000000         0.000      0.000

 O/F=    0.00000  %FUEL=100.000000  R,EQ.RATIO= 0.000000  PHI,EQ.RATIO= 0.000000

 THERMODYNAMIC PROPERTIES

 P, BAR            11.000
 T, K             5840.00
 RHO, KG/CU M    2.3932-2
 H, KJ/KG        309412.5
 U, KJ/KG        263449.4
 G, KJ/KG       -579249.0
 S, KJ/(KG)(K)   152.1681

 M, (1/n)           1.056
 (dLV/dLP)t      -1.04170
 (dLV/dLT)p        1.3993
 Cp, KJ/(KG)(K)   50.7508
 GAMMAs            1.3549
 SON VEL,M/SEC     7891.6

 TRANSPORT PROPERTIES (GASES ONLY)
   CONDUCTIVITY IN UNITS OF MILLIWATTS/(CM)(K)

 VISC,MILLIPOISE  0.67641

  WITH EQUILIBRIUM REACTIONS

 Cp, KJ/(KG)(K)   50.7508
 CONDUCTIVITY     56.3950
 PRANDTL NUMBER    0.6087

  WITH FROZEN REACTIONS

 Cp, KJ/(KG)(K)   20.6351
 CONDUCTIVITY     20.2150
 PRANDTL NUMBER    0.6905

 MOLE FRACTIONS

 *e-              0.00001
 *H               0.95186
 *H+              0.00001
 *H2              0.04812

  * THERMODYNAMIC PROPERTIES FITTED TO 20000.K

 NOTE. WEIGHT FRACTION OF FUEL IN TOTAL FUELS AND OF OXIDANT IN TOTAL OXIDANTS



  
