
 *******************************************************************************

         NASA-GLENN CHEMICAL EQUILIBRIUM PROGRAM CEA2, MAY 21, 2004
                   BY  BONNIE MCBRIDE AND SANFORD GORDON
      REFS: NASA RP-1311, PART I, 1994 AND NASA RP-1311, PART II, 1996

 *******************************************************************************



  prob tp ions
  p,bar= 60.0,67.0,74.0,82.5,91.0,100.0,110.0,120.0,132.0,148.0,165.0,180.0,200.0
 ,225.0,250.0
  t,k= 1200,1210,1220,1230,1240,1250,1260,1270,1280,1290,1300,1310,1320,1330,1340
  
  reac
  na H2                wt%=100.0000
  
  output short
  output siunits
  output transport
  
 end





               THERMODYNAMIC EQUILIBRIUM PROPERTIES AT ASSIGNED

                           TEMPERATURE AND PRESSURE

 CASE =                

             REACTANT                    WT FRACTION      ENERGY      TEMP
                                          (SEE NOTE)     KJ/KG-MOL      K  
             H2                           1.0000000         0.000      0.000

 O/F=    0.00000  %FUEL=100.000000  R,EQ.RATIO= 0.000000  PHI,EQ.RATIO= 0.000000

 THERMODYNAMIC PROPERTIES

 P, BAR            60.000   60.000   60.000   60.000   60.000   60.000   60.000   60.000
 T, K             1200.00  1210.00  1220.00  1230.00  1240.00  1250.00  1260.00  1270.00
 RHO, KG/CU M    1.2123 0 1.2023 0 1.1924 0 1.1827 0 1.1732 0 1.1638 0 1.1545 0 1.1455 0
 H, KJ/KG         13291.6  13445.4  13599.4  13753.6  13908.1  14062.8  14217.6  14372.7
 U, KJ/KG         8342.22  8454.77  8567.54  8680.53  8793.73  8907.15  9020.79  9134.65
 G, KJ/KG        -68705.6 -69389.4 -70074.6 -70761.1 -71448.8 -72137.8 -72828.0 -73519.4
 S, KJ/(KG)(K)    68.3310  68.4585  68.5853  68.7111  68.8362  68.9604  69.0838  69.2064

 M, (1/n)           2.016    2.016    2.016    2.016    2.016    2.016    2.016    2.016
 (dLV/dLP)t      -1.00000 -1.00000 -1.00000 -1.00000 -1.00000 -1.00000 -1.00000 -1.00000
 (dLV/dLT)p        1.0000   1.0000   1.0000   1.0000   1.0000   1.0000   1.0000   1.0000
 Cp, KJ/(KG)(K)   15.3694  15.3908  15.4123  15.4340  15.4557  15.4775  15.4993  15.5212
 GAMMAs            1.3668   1.3661   1.3654   1.3647   1.3640   1.3633   1.3626   1.3619
 SON VEL,M/SEC     2600.9   2611.1   2621.2   2631.2   2641.2   2651.2   2661.1   2670.9

 TRANSPORT PROPERTIES (GASES ONLY)
   CONDUCTIVITY IN UNITS OF MILLIWATTS/(CM)(K)

 VISC,MILLIPOISE  0.23350  0.23485  0.23619  0.23753  0.23887  0.24020  0.24153  0.24286

  WITH EQUILIBRIUM REACTIONS

 Cp, KJ/(KG)(K)   15.3694  15.3908  15.4123  15.4340  15.4557  15.4775  15.4993  15.5212
 CONDUCTIVITY      5.1467   5.1824   5.2182   5.2541   5.2900   5.3260   5.3620   5.3980
 PRANDTL NUMBER    0.6973   0.6975   0.6976   0.6978   0.6979   0.6980   0.6982   0.6983

  WITH FROZEN REACTIONS

 Cp, KJ/(KG)(K)   15.3693  15.3907  15.4123  15.4339  15.4556  15.4773  15.4992  15.5211
 CONDUCTIVITY      5.1467   5.1824   5.2182   5.2541   5.2900   5.3259   5.3619   5.3979
 PRANDTL NUMBER    0.6973   0.6975   0.6976   0.6978   0.6979   0.6980   0.6982   0.6983

 MOLE FRACTIONS

 *H2              1.00000  1.00000  1.00000  1.00000  1.00000  1.00000  1.00000  1.00000

  * THERMODYNAMIC PROPERTIES FITTED TO 20000.K

 NOTE. WEIGHT FRACTION OF FUEL IN TOTAL FUELS AND OF OXIDANT IN TOTAL OXIDANTS









               THERMODYNAMIC EQUILIBRIUM PROPERTIES AT ASSIGNED

                           TEMPERATURE AND PRESSURE

 CASE =                

             REACTANT                    WT FRACTION      ENERGY      TEMP
                                          (SEE NOTE)     KJ/KG-MOL      K  
             H2                           1.0000000         0.000      0.000

 O/F=    0.00000  %FUEL=100.000000  R,EQ.RATIO= 0.000000  PHI,EQ.RATIO= 0.000000

 THERMODYNAMIC PROPERTIES

 P, BAR            60.000   60.000   60.000   60.000   60.000   60.000   60.000   67.000
 T, K             1280.00  1290.00  1300.00  1310.00  1320.00  1330.00  1340.00  1200.00
 RHO, KG/CU M    1.1365 0 1.1277 0 1.1190 0 1.1105 0 1.1021 0 1.0938 0 1.0856 0 1.3537 0
 H, KJ/KG         14528.1  14683.6  14839.4  14995.4  15151.6  15308.0  15464.6  13291.6
 U, KJ/KG         9248.73  9363.02  9477.54  9592.28  9707.24  9822.42  9937.82  8342.22
 G, KJ/KG        -74212.1 -74906.0 -75601.1 -76297.4 -76994.9 -77693.5 -78393.4 -68159.3
 S, KJ/(KG)(K)    69.3283  69.4493  69.5696  69.6891  69.8079  69.9260  70.0433  67.8758

 M, (1/n)           2.016    2.016    2.016    2.016    2.016    2.016    2.016    2.016
 (dLV/dLP)t      -1.00000 -1.00000 -1.00000 -1.00000 -1.00000 -1.00000 -1.00000 -1.00000
 (dLV/dLT)p        1.0000   1.0000   1.0000   1.0000   1.0000   1.0000   1.0000   1.0000
 Cp, KJ/(KG)(K)   15.5432  15.5652  15.5872  15.6093  15.6314  15.6535  15.6756  15.3693
 GAMMAs            1.3612   1.3605   1.3598   1.3591   1.3584   1.3578   1.3571   1.3668
 SON VEL,M/SEC     2680.7   2690.5   2700.2   2709.9   2719.5   2729.1   2738.7   2600.9

 TRANSPORT PROPERTIES (GASES ONLY)
   CONDUCTIVITY IN UNITS OF MILLIWATTS/(CM)(K)

 VISC,MILLIPOISE  0.24418  0.24551  0.24682  0.24814  0.24945  0.25076  0.25207  0.23350

  WITH EQUILIBRIUM REACTIONS

 Cp, KJ/(KG)(K)   15.5432  15.5652  15.5872  15.6093  15.6314  15.6535  15.6756  15.3693
 CONDUCTIVITY      5.4341   5.4702   5.5063   5.5425   5.5787   5.6149   5.6512   5.1466
 PRANDTL NUMBER    0.6984   0.6986   0.6987   0.6988   0.6990   0.6991   0.6992   0.6973

  WITH FROZEN REACTIONS

 Cp, KJ/(KG)(K)   15.5430  15.5650  15.5870  15.6090  15.6310  15.6531  15.6752  15.3693
 CONDUCTIVITY      5.4340   5.4701   5.5062   5.5423   5.5785   5.6147   5.6509   5.1466
 PRANDTL NUMBER    0.6985   0.6986   0.6987   0.6988   0.6990   0.6991   0.6992   0.6973

 MOLE FRACTIONS

 *H2              1.00000  1.00000  1.00000  1.00000  1.00000  1.00000  1.00000  1.00000

  * THERMODYNAMIC PROPERTIES FITTED TO 20000.K

 NOTE. WEIGHT FRACTION OF FUEL IN TOTAL FUELS AND OF OXIDANT IN TOTAL OXIDANTS









               THERMODYNAMIC EQUILIBRIUM PROPERTIES AT ASSIGNED

                           TEMPERATURE AND PRESSURE

 CASE =                

             REACTANT                    WT FRACTION      ENERGY      TEMP
                                          (SEE NOTE)     KJ/KG-MOL      K  
             H2                           1.0000000         0.000      0.000

 O/F=    0.00000  %FUEL=100.000000  R,EQ.RATIO= 0.000000  PHI,EQ.RATIO= 0.000000

 THERMODYNAMIC PROPERTIES

 P, BAR            67.000   67.000   67.000   67.000   67.000   67.000   67.000   67.000
 T, K             1210.00  1220.00  1230.00  1240.00  1250.00  1260.00  1270.00  1280.00
 RHO, KG/CU M    1.3425 0 1.3315 0 1.3207 0 1.3100 0 1.2996 0 1.2892 0 1.2791 0 1.2691 0
 H, KJ/KG         13445.4  13599.4  13753.6  13908.1  14062.8  14217.6  14372.7  14528.1
 U, KJ/KG         8454.77  8567.54  8680.53  8793.73  8907.15  9020.79  9134.65  9248.73
 G, KJ/KG        -68838.7 -69519.3 -70201.2 -70884.4 -71568.8 -72254.5 -72941.4 -73629.5
 S, KJ/(KG)(K)    68.0034  68.1301  68.2560  68.3811  68.5053  68.6287  68.7513  68.8731

 M, (1/n)           2.016    2.016    2.016    2.016    2.016    2.016    2.016    2.016
 (dLV/dLP)t      -1.00000 -1.00000 -1.00000 -1.00000 -1.00000 -1.00000 -1.00000 -1.00000
 (dLV/dLT)p        1.0000   1.0000   1.0000   1.0000   1.0000   1.0000   1.0000   1.0000
 Cp, KJ/(KG)(K)   15.3908  15.4123  15.4340  15.4557  15.4775  15.4993  15.5212  15.5432
 GAMMAs            1.3661   1.3654   1.3647   1.3640   1.3633   1.3626   1.3619   1.3612
 SON VEL,M/SEC     2611.1   2621.2   2631.2   2641.2   2651.2   2661.1   2670.9   2680.7

 TRANSPORT PROPERTIES (GASES ONLY)
   CONDUCTIVITY IN UNITS OF MILLIWATTS/(CM)(K)

 VISC,MILLIPOISE  0.23485  0.23619  0.23753  0.23887  0.24020  0.24153  0.24286  0.24418

  WITH EQUILIBRIUM REACTIONS

 Cp, KJ/(KG)(K)   15.3908  15.4123  15.4340  15.4557  15.4775  15.4993  15.5212  15.5432
 CONDUCTIVITY      5.1824   5.2182   5.2541   5.2900   5.3260   5.3620   5.3980   5.4341
 PRANDTL NUMBER    0.6975   0.6976   0.6978   0.6979   0.6980   0.6982   0.6983   0.6984

  WITH FROZEN REACTIONS

 Cp, KJ/(KG)(K)   15.3907  15.4123  15.4339  15.4556  15.4773  15.4992  15.5211  15.5430
 CONDUCTIVITY      5.1823   5.2182   5.2540   5.2900   5.3259   5.3619   5.3979   5.4340
 PRANDTL NUMBER    0.6975   0.6976   0.6978   0.6979   0.6980   0.6982   0.6983   0.6985

 MOLE FRACTIONS

 *H2              1.00000  1.00000  1.00000  1.00000  1.00000  1.00000  1.00000  1.00000

  * THERMODYNAMIC PROPERTIES FITTED TO 20000.K

 NOTE. WEIGHT FRACTION OF FUEL IN TOTAL FUELS AND OF OXIDANT IN TOTAL OXIDANTS









               THERMODYNAMIC EQUILIBRIUM PROPERTIES AT ASSIGNED

                           TEMPERATURE AND PRESSURE

 CASE =                

             REACTANT                    WT FRACTION      ENERGY      TEMP
                                          (SEE NOTE)     KJ/KG-MOL      K  
             H2                           1.0000000         0.000      0.000

 O/F=    0.00000  %FUEL=100.000000  R,EQ.RATIO= 0.000000  PHI,EQ.RATIO= 0.000000

 THERMODYNAMIC PROPERTIES

 P, BAR            67.000   67.000   67.000   67.000   67.000   67.000   74.000   74.000
 T, K             1290.00  1300.00  1310.00  1320.00  1330.00  1340.00  1200.00  1210.00
 RHO, KG/CU M    1.2593 0 1.2496 0 1.2400 0 1.2306 0 1.2214 0 1.2123 0 1.4951 0 1.4828 0
 H, KJ/KG         14683.6  14839.4  14995.4  15151.6  15308.0  15464.6  13291.6  13445.4
 U, KJ/KG         9363.02  9477.54  9592.28  9707.24  9822.42  9937.82  8342.22  8454.77
 G, KJ/KG        -74318.9 -75009.4 -75701.2 -76394.1 -77088.2 -77783.5 -67667.5 -68342.7
 S, KJ/(KG)(K)    68.9942  69.1145  69.2340  69.3528  69.4708  69.5882  67.4659  67.5935

 M, (1/n)           2.016    2.016    2.016    2.016    2.016    2.016    2.016    2.016
 (dLV/dLP)t      -1.00000 -1.00000 -1.00000 -1.00000 -1.00000 -1.00000 -1.00000 -1.00000
 (dLV/dLT)p        1.0000   1.0000   1.0000   1.0000   1.0000   1.0000   1.0000   1.0000
 Cp, KJ/(KG)(K)   15.5652  15.5872  15.6093  15.6314  15.6535  15.6756  15.3693  15.3908
 GAMMAs            1.3605   1.3598   1.3591   1.3584   1.3578   1.3571   1.3668   1.3661
 SON VEL,M/SEC     2690.5   2700.2   2709.9   2719.5   2729.1   2738.7   2600.9   2611.1

 TRANSPORT PROPERTIES (GASES ONLY)
   CONDUCTIVITY IN UNITS OF MILLIWATTS/(CM)(K)

 VISC,MILLIPOISE  0.24551  0.24682  0.24814  0.24945  0.25076  0.25207  0.23350  0.23485

  WITH EQUILIBRIUM REACTIONS

 Cp, KJ/(KG)(K)   15.5652  15.5872  15.6093  15.6314  15.6535  15.6756  15.3693  15.3908
 CONDUCTIVITY      5.4702   5.5063   5.5425   5.5787   5.6149   5.6512   5.1466   5.1824
 PRANDTL NUMBER    0.6986   0.6987   0.6988   0.6990   0.6991   0.6992   0.6973   0.6975

  WITH FROZEN REACTIONS

 Cp, KJ/(KG)(K)   15.5650  15.5870  15.6090  15.6310  15.6531  15.6752  15.3693  15.3907
 CONDUCTIVITY      5.4701   5.5062   5.5423   5.5785   5.6147   5.6509   5.1466   5.1823
 PRANDTL NUMBER    0.6986   0.6987   0.6988   0.6990   0.6991   0.6992   0.6973   0.6975

 MOLE FRACTIONS

 *H2              1.00000  1.00000  1.00000  1.00000  1.00000  1.00000  1.00000  1.00000

  * THERMODYNAMIC PROPERTIES FITTED TO 20000.K

 NOTE. WEIGHT FRACTION OF FUEL IN TOTAL FUELS AND OF OXIDANT IN TOTAL OXIDANTS









               THERMODYNAMIC EQUILIBRIUM PROPERTIES AT ASSIGNED

                           TEMPERATURE AND PRESSURE

 CASE =                

             REACTANT                    WT FRACTION      ENERGY      TEMP
                                          (SEE NOTE)     KJ/KG-MOL      K  
             H2                           1.0000000         0.000      0.000

 O/F=    0.00000  %FUEL=100.000000  R,EQ.RATIO= 0.000000  PHI,EQ.RATIO= 0.000000

 THERMODYNAMIC PROPERTIES

 P, BAR            74.000   74.000   74.000   74.000   74.000   74.000   74.000   74.000
 T, K             1220.00  1230.00  1240.00  1250.00  1260.00  1270.00  1280.00  1290.00
 RHO, KG/CU M    1.4706 0 1.4587 0 1.4469 0 1.4353 0 1.4239 0 1.4127 0 1.4017 0 1.3908 0
 H, KJ/KG         13599.4  13753.6  13908.1  14062.8  14217.6  14372.7  14528.1  14683.6
 U, KJ/KG         8567.54  8680.53  8793.73  8907.15  9020.79  9134.65  9248.73  9363.02
 G, KJ/KG        -69019.3 -69697.1 -70376.2 -71056.5 -71738.1 -72420.9 -73104.9 -73790.2
 S, KJ/(KG)(K)    67.7202  67.8461  67.9712  68.0954  68.2188  68.3414  68.4633  68.5843

 M, (1/n)           2.016    2.016    2.016    2.016    2.016    2.016    2.016    2.016
 (dLV/dLP)t      -1.00000 -1.00000 -1.00000 -1.00000 -1.00000 -1.00000 -1.00000 -1.00000
 (dLV/dLT)p        1.0000   1.0000   1.0000   1.0000   1.0000   1.0000   1.0000   1.0000
 Cp, KJ/(KG)(K)   15.4123  15.4339  15.4557  15.4775  15.4993  15.5212  15.5432  15.5652
 GAMMAs            1.3654   1.3647   1.3640   1.3633   1.3626   1.3619   1.3612   1.3605
 SON VEL,M/SEC     2621.2   2631.2   2641.2   2651.2   2661.1   2670.9   2680.7   2690.5

 TRANSPORT PROPERTIES (GASES ONLY)
   CONDUCTIVITY IN UNITS OF MILLIWATTS/(CM)(K)

 VISC,MILLIPOISE  0.23619  0.23753  0.23887  0.24020  0.24153  0.24286  0.24418  0.24551

  WITH EQUILIBRIUM REACTIONS

 Cp, KJ/(KG)(K)   15.4123  15.4339  15.4557  15.4775  15.4993  15.5212  15.5432  15.5652
 CONDUCTIVITY      5.2182   5.2541   5.2900   5.3260   5.3620   5.3980   5.4341   5.4702
 PRANDTL NUMBER    0.6976   0.6978   0.6979   0.6980   0.6982   0.6983   0.6984   0.6986

  WITH FROZEN REACTIONS

 Cp, KJ/(KG)(K)   15.4123  15.4339  15.4556  15.4773  15.4992  15.5211  15.5430  15.5650
 CONDUCTIVITY      5.2182   5.2540   5.2900   5.3259   5.3619   5.3979   5.4340   5.4701
 PRANDTL NUMBER    0.6976   0.6978   0.6979   0.6980   0.6982   0.6983   0.6985   0.6986

 MOLE FRACTIONS

 *H2              1.00000  1.00000  1.00000  1.00000  1.00000  1.00000  1.00000  1.00000

  * THERMODYNAMIC PROPERTIES FITTED TO 20000.K

 NOTE. WEIGHT FRACTION OF FUEL IN TOTAL FUELS AND OF OXIDANT IN TOTAL OXIDANTS









               THERMODYNAMIC EQUILIBRIUM PROPERTIES AT ASSIGNED

                           TEMPERATURE AND PRESSURE

 CASE =                

             REACTANT                    WT FRACTION      ENERGY      TEMP
                                          (SEE NOTE)     KJ/KG-MOL      K  
             H2                           1.0000000         0.000      0.000

 O/F=    0.00000  %FUEL=100.000000  R,EQ.RATIO= 0.000000  PHI,EQ.RATIO= 0.000000

 THERMODYNAMIC PROPERTIES

 P, BAR            74.000   74.000   74.000   74.000   74.000   82.500   82.500   82.500
 T, K             1300.00  1310.00  1320.00  1330.00  1340.00  1200.00  1210.00  1220.00
 RHO, KG/CU M    1.3801 0 1.3696 0 1.3592 0 1.3490 0 1.3389 0 1.6669 0 1.6531 0 1.6395 0
 H, KJ/KG         14839.4  14995.4  15151.6  15308.0  15464.6  13291.6  13445.4  13599.4
 U, KJ/KG         9477.54  9592.28  9707.24  9822.41  9937.81  8342.22  8454.77  8567.54
 G, KJ/KG        -74476.6 -75164.2 -75853.1 -76543.1 -77234.3 -67129.3 -67800.1 -68472.1
 S, KJ/(KG)(K)    68.7046  68.8241  68.9429  69.0610  69.1783  67.0174  67.1450  67.2718

 M, (1/n)           2.016    2.016    2.016    2.016    2.016    2.016    2.016    2.016
 (dLV/dLP)t      -1.00000 -1.00000 -1.00000 -1.00000 -1.00000 -1.00000 -1.00000 -1.00000
 (dLV/dLT)p        1.0000   1.0000   1.0000   1.0000   1.0000   1.0000   1.0000   1.0000
 Cp, KJ/(KG)(K)   15.5872  15.6093  15.6313  15.6535  15.6756  15.3693  15.3908  15.4123
 GAMMAs            1.3598   1.3591   1.3584   1.3578   1.3571   1.3668   1.3661   1.3654
 SON VEL,M/SEC     2700.2   2709.9   2719.5   2729.1   2738.7   2600.9   2611.1   2621.2

 TRANSPORT PROPERTIES (GASES ONLY)
   CONDUCTIVITY IN UNITS OF MILLIWATTS/(CM)(K)

 VISC,MILLIPOISE  0.24682  0.24814  0.24945  0.25076  0.25207  0.23350  0.23485  0.23619

  WITH EQUILIBRIUM REACTIONS

 Cp, KJ/(KG)(K)   15.5872  15.6093  15.6313  15.6535  15.6756  15.3693  15.3908  15.4123
 CONDUCTIVITY      5.5063   5.5425   5.5787   5.6149   5.6512   5.1466   5.1824   5.2182
 PRANDTL NUMBER    0.6987   0.6988   0.6990   0.6991   0.6992   0.6973   0.6975   0.6976

  WITH FROZEN REACTIONS

 Cp, KJ/(KG)(K)   15.5870  15.6090  15.6310  15.6531  15.6752  15.3693  15.3907  15.4123
 CONDUCTIVITY      5.5062   5.5423   5.5785   5.6147   5.6509   5.1466   5.1823   5.2182
 PRANDTL NUMBER    0.6987   0.6988   0.6990   0.6991   0.6992   0.6973   0.6975   0.6976

 MOLE FRACTIONS

 *H2              1.00000  1.00000  1.00000  1.00000  1.00000  1.00000  1.00000  1.00000

  * THERMODYNAMIC PROPERTIES FITTED TO 20000.K

 NOTE. WEIGHT FRACTION OF FUEL IN TOTAL FUELS AND OF OXIDANT IN TOTAL OXIDANTS









               THERMODYNAMIC EQUILIBRIUM PROPERTIES AT ASSIGNED

                           TEMPERATURE AND PRESSURE

 CASE =                

             REACTANT                    WT FRACTION      ENERGY      TEMP
                                          (SEE NOTE)     KJ/KG-MOL      K  
             H2                           1.0000000         0.000      0.000

 O/F=    0.00000  %FUEL=100.000000  R,EQ.RATIO= 0.000000  PHI,EQ.RATIO= 0.000000

 THERMODYNAMIC PROPERTIES

 P, BAR            82.500   82.500   82.500   82.500   82.500   82.500   82.500   82.500
 T, K             1230.00  1240.00  1250.00  1260.00  1270.00  1280.00  1290.00  1300.00
 RHO, KG/CU M    1.6262 0 1.6131 0 1.6002 0 1.5875 0 1.5750 0 1.5627 0 1.5506 0 1.5387 0
 H, KJ/KG         13753.6  13908.1  14062.8  14217.6  14372.7  14528.1  14683.6  14839.4
 U, KJ/KG         8680.53  8793.73  8907.15  9020.79  9134.65  9248.73  9363.02  9477.54
 G, KJ/KG        -69145.5 -69820.1 -70495.9 -71173.0 -71851.3 -72530.9 -73211.6 -73893.6
 S, KJ/(KG)(K)    67.3977  67.5227  67.6470  67.7704  67.8930  68.0148  68.1358  68.2561

 M, (1/n)           2.016    2.016    2.016    2.016    2.016    2.016    2.016    2.016
 (dLV/dLP)t      -1.00000 -1.00000 -1.00000 -1.00000 -1.00000 -1.00000 -1.00000 -1.00000
 (dLV/dLT)p        1.0000   1.0000   1.0000   1.0000   1.0000   1.0000   1.0000   1.0000
 Cp, KJ/(KG)(K)   15.4339  15.4557  15.4774  15.4993  15.5212  15.5432  15.5652  15.5872
 GAMMAs            1.3647   1.3640   1.3633   1.3626   1.3619   1.3612   1.3605   1.3598
 SON VEL,M/SEC     2631.2   2641.2   2651.2   2661.1   2670.9   2680.7   2690.5   2700.2

 TRANSPORT PROPERTIES (GASES ONLY)
   CONDUCTIVITY IN UNITS OF MILLIWATTS/(CM)(K)

 VISC,MILLIPOISE  0.23753  0.23887  0.24020  0.24153  0.24286  0.24418  0.24551  0.24682

  WITH EQUILIBRIUM REACTIONS

 Cp, KJ/(KG)(K)   15.4339  15.4557  15.4774  15.4993  15.5212  15.5432  15.5652  15.5872
 CONDUCTIVITY      5.2541   5.2900   5.3260   5.3620   5.3980   5.4341   5.4702   5.5063
 PRANDTL NUMBER    0.6978   0.6979   0.6980   0.6982   0.6983   0.6984   0.6986   0.6987

  WITH FROZEN REACTIONS

 Cp, KJ/(KG)(K)   15.4339  15.4556  15.4773  15.4992  15.5211  15.5430  15.5650  15.5870
 CONDUCTIVITY      5.2540   5.2900   5.3259   5.3619   5.3979   5.4340   5.4701   5.5062
 PRANDTL NUMBER    0.6978   0.6979   0.6980   0.6982   0.6983   0.6985   0.6986   0.6987

 MOLE FRACTIONS

 *H2              1.00000  1.00000  1.00000  1.00000  1.00000  1.00000  1.00000  1.00000

  * THERMODYNAMIC PROPERTIES FITTED TO 20000.K

 NOTE. WEIGHT FRACTION OF FUEL IN TOTAL FUELS AND OF OXIDANT IN TOTAL OXIDANTS









               THERMODYNAMIC EQUILIBRIUM PROPERTIES AT ASSIGNED

                           TEMPERATURE AND PRESSURE

 CASE =                

             REACTANT                    WT FRACTION      ENERGY      TEMP
                                          (SEE NOTE)     KJ/KG-MOL      K  
             H2                           1.0000000         0.000      0.000

 O/F=    0.00000  %FUEL=100.000000  R,EQ.RATIO= 0.000000  PHI,EQ.RATIO= 0.000000

 THERMODYNAMIC PROPERTIES

 P, BAR            82.500   82.500   82.500   82.500   91.000   91.000   91.000   91.000
 T, K             1310.00  1320.00  1330.00  1340.00  1200.00  1210.00  1220.00  1230.00
 RHO, KG/CU M    1.5269 0 1.5153 0 1.5039 0 1.4927 0 1.8386 0 1.8234 0 1.8085 0 1.7938 0
 H, KJ/KG         14995.4  15151.6  15308.0  15464.6  13291.6  13445.4  13599.4  13753.6
 U, KJ/KG         9592.28  9707.23  9822.41  9937.81  8342.22  8454.77  8567.54  8680.53
 G, KJ/KG        -74576.7 -75261.1 -75946.6 -76633.3 -66644.0 -67310.7 -67978.7 -68648.0
 S, KJ/(KG)(K)    68.3756  68.4944  68.6125  68.7298  66.6130  66.7406  66.8673  66.9932

 M, (1/n)           2.016    2.016    2.016    2.016    2.016    2.016    2.016    2.016
 (dLV/dLP)t      -1.00000 -1.00000 -1.00000 -1.00000 -1.00000 -1.00000 -1.00000 -1.00000
 (dLV/dLT)p        1.0000   1.0000   1.0000   1.0000   1.0000   1.0000   1.0000   1.0000
 Cp, KJ/(KG)(K)   15.6093  15.6313  15.6534  15.6755  15.3693  15.3908  15.4123  15.4339
 GAMMAs            1.3591   1.3584   1.3578   1.3571   1.3668   1.3661   1.3654   1.3647
 SON VEL,M/SEC     2709.9   2719.5   2729.1   2738.7   2600.9   2611.1   2621.2   2631.2

 TRANSPORT PROPERTIES (GASES ONLY)
   CONDUCTIVITY IN UNITS OF MILLIWATTS/(CM)(K)

 VISC,MILLIPOISE  0.24814  0.24945  0.25076  0.25207  0.23350  0.23485  0.23619  0.23753

  WITH EQUILIBRIUM REACTIONS

 Cp, KJ/(KG)(K)   15.6093  15.6313  15.6534  15.6755  15.3693  15.3908  15.4123  15.4339
 CONDUCTIVITY      5.5425   5.5787   5.6149   5.6512   5.1466   5.1824   5.2182   5.2541
 PRANDTL NUMBER    0.6988   0.6990   0.6991   0.6992   0.6973   0.6975   0.6976   0.6978

  WITH FROZEN REACTIONS

 Cp, KJ/(KG)(K)   15.6090  15.6310  15.6531  15.6752  15.3693  15.3907  15.4123  15.4339
 CONDUCTIVITY      5.5423   5.5785   5.6147   5.6509   5.1466   5.1823   5.2182   5.2540
 PRANDTL NUMBER    0.6988   0.6990   0.6991   0.6992   0.6973   0.6975   0.6976   0.6978

 MOLE FRACTIONS

 *H2              1.00000  1.00000  1.00000  1.00000  1.00000  1.00000  1.00000  1.00000

  * THERMODYNAMIC PROPERTIES FITTED TO 20000.K

 NOTE. WEIGHT FRACTION OF FUEL IN TOTAL FUELS AND OF OXIDANT IN TOTAL OXIDANTS









               THERMODYNAMIC EQUILIBRIUM PROPERTIES AT ASSIGNED

                           TEMPERATURE AND PRESSURE

 CASE =                

             REACTANT                    WT FRACTION      ENERGY      TEMP
                                          (SEE NOTE)     KJ/KG-MOL      K  
             H2                           1.0000000         0.000      0.000

 O/F=    0.00000  %FUEL=100.000000  R,EQ.RATIO= 0.000000  PHI,EQ.RATIO= 0.000000

 THERMODYNAMIC PROPERTIES

 P, BAR            91.000   91.000   91.000   91.000   91.000   91.000   91.000   91.000
 T, K             1240.00  1250.00  1260.00  1270.00  1280.00  1290.00  1300.00  1310.00
 RHO, KG/CU M    1.7793 0 1.7651 0 1.7511 0 1.7373 0 1.7237 0 1.7103 0 1.6972 0 1.6842 0
 H, KJ/KG         13908.1  14062.8  14217.6  14372.7  14528.1  14683.6  14839.4  14995.4
 U, KJ/KG         8793.73  8907.15  9020.79  9134.65  9248.73  9363.02  9477.54  9592.28
 G, KJ/KG        -69318.6 -69990.4 -70663.4 -71337.7 -72013.2 -72689.9 -73367.8 -74046.9
 S, KJ/(KG)(K)    67.1183  67.2425  67.3659  67.4885  67.6103  67.7314  67.8517  67.9712

 M, (1/n)           2.016    2.016    2.016    2.016    2.016    2.016    2.016    2.016
 (dLV/dLP)t      -1.00000 -1.00000 -1.00000 -1.00000 -1.00000 -1.00000 -1.00000 -1.00000
 (dLV/dLT)p        1.0000   1.0000   1.0000   1.0000   1.0000   1.0000   1.0000   1.0000
 Cp, KJ/(KG)(K)   15.4557  15.4774  15.4993  15.5212  15.5432  15.5652  15.5872  15.6092
 GAMMAs            1.3640   1.3633   1.3626   1.3619   1.3612   1.3605   1.3598   1.3591
 SON VEL,M/SEC     2641.2   2651.2   2661.1   2670.9   2680.7   2690.5   2700.2   2709.9

 TRANSPORT PROPERTIES (GASES ONLY)
   CONDUCTIVITY IN UNITS OF MILLIWATTS/(CM)(K)

 VISC,MILLIPOISE  0.23887  0.24020  0.24153  0.24286  0.24418  0.24551  0.24682  0.24814

  WITH EQUILIBRIUM REACTIONS

 Cp, KJ/(KG)(K)   15.4557  15.4774  15.4993  15.5212  15.5432  15.5652  15.5872  15.6092
 CONDUCTIVITY      5.2900   5.3260   5.3620   5.3980   5.4341   5.4702   5.5063   5.5425
 PRANDTL NUMBER    0.6979   0.6980   0.6982   0.6983   0.6984   0.6986   0.6987   0.6988

  WITH FROZEN REACTIONS

 Cp, KJ/(KG)(K)   15.4556  15.4773  15.4992  15.5211  15.5430  15.5650  15.5870  15.6090
 CONDUCTIVITY      5.2900   5.3259   5.3619   5.3979   5.4340   5.4701   5.5062   5.5423
 PRANDTL NUMBER    0.6979   0.6980   0.6982   0.6983   0.6985   0.6986   0.6987   0.6988

 MOLE FRACTIONS

 *H2              1.00000  1.00000  1.00000  1.00000  1.00000  1.00000  1.00000  1.00000

  * THERMODYNAMIC PROPERTIES FITTED TO 20000.K

 NOTE. WEIGHT FRACTION OF FUEL IN TOTAL FUELS AND OF OXIDANT IN TOTAL OXIDANTS









               THERMODYNAMIC EQUILIBRIUM PROPERTIES AT ASSIGNED

                           TEMPERATURE AND PRESSURE

 CASE =                

             REACTANT                    WT FRACTION      ENERGY      TEMP
                                          (SEE NOTE)     KJ/KG-MOL      K  
             H2                           1.0000000         0.000      0.000

 O/F=    0.00000  %FUEL=100.000000  R,EQ.RATIO= 0.000000  PHI,EQ.RATIO= 0.000000

 THERMODYNAMIC PROPERTIES

 P, BAR            91.000   91.000   91.000   100.00   100.00   100.00   100.00   100.00
 T, K             1320.00  1330.00  1340.00  1200.00  1210.00  1220.00  1230.00  1240.00
 RHO, KG/CU M    1.6715 0 1.6589 0 1.6465 0 2.0204 0 2.0038 0 1.9873 0 1.9712 0 1.9553 0
 H, KJ/KG         15151.6  15308.0  15464.6  13291.6  13445.4  13599.4  13753.6  13908.1
 U, KJ/KG         9707.23  9822.41  9937.81  8342.22  8454.77  8567.54  8680.53  8793.73
 G, KJ/KG        -74727.2 -75408.7 -76091.4 -66177.2 -66840.0 -67504.1 -68169.6 -68836.2
 S, KJ/(KG)(K)    68.0900  68.2080  68.3254  66.2240  66.3516  66.4783  66.6042  66.7293

 M, (1/n)           2.016    2.016    2.016    2.016    2.016    2.016    2.016    2.016
 (dLV/dLP)t      -1.00000 -1.00000 -1.00000 -1.00000 -1.00000 -1.00000 -1.00000 -1.00000
 (dLV/dLT)p        1.0000   1.0000   1.0000   1.0000   1.0000   1.0000   1.0000   1.0000
 Cp, KJ/(KG)(K)   15.6313  15.6534  15.6755  15.3693  15.3908  15.4123  15.4339  15.4557
 GAMMAs            1.3584   1.3578   1.3571   1.3668   1.3661   1.3654   1.3647   1.3640
 SON VEL,M/SEC     2719.5   2729.1   2738.7   2600.9   2611.1   2621.2   2631.2   2641.2

 TRANSPORT PROPERTIES (GASES ONLY)
   CONDUCTIVITY IN UNITS OF MILLIWATTS/(CM)(K)

 VISC,MILLIPOISE  0.24945  0.25076  0.25207  0.23350  0.23485  0.23619  0.23753  0.23887

  WITH EQUILIBRIUM REACTIONS

 Cp, KJ/(KG)(K)   15.6313  15.6534  15.6755  15.3693  15.3908  15.4123  15.4339  15.4557
 CONDUCTIVITY      5.5787   5.6149   5.6512   5.1466   5.1824   5.2182   5.2541   5.2900
 PRANDTL NUMBER    0.6990   0.6991   0.6992   0.6973   0.6975   0.6976   0.6978   0.6979

  WITH FROZEN REACTIONS

 Cp, KJ/(KG)(K)   15.6310  15.6531  15.6752  15.3693  15.3907  15.4123  15.4339  15.4556
 CONDUCTIVITY      5.5785   5.6147   5.6509   5.1466   5.1823   5.2182   5.2540   5.2900
 PRANDTL NUMBER    0.6990   0.6991   0.6992   0.6973   0.6975   0.6976   0.6978   0.6979

 MOLE FRACTIONS

 *H2              1.00000  1.00000  1.00000  1.00000  1.00000  1.00000  1.00000  1.00000

  * THERMODYNAMIC PROPERTIES FITTED TO 20000.K

 NOTE. WEIGHT FRACTION OF FUEL IN TOTAL FUELS AND OF OXIDANT IN TOTAL OXIDANTS









               THERMODYNAMIC EQUILIBRIUM PROPERTIES AT ASSIGNED

                           TEMPERATURE AND PRESSURE

 CASE =                

             REACTANT                    WT FRACTION      ENERGY      TEMP
                                          (SEE NOTE)     KJ/KG-MOL      K  
             H2                           1.0000000         0.000      0.000

 O/F=    0.00000  %FUEL=100.000000  R,EQ.RATIO= 0.000000  PHI,EQ.RATIO= 0.000000

 THERMODYNAMIC PROPERTIES

 P, BAR            100.00   100.00   100.00   100.00   100.00   100.00   100.00   100.00
 T, K             1250.00  1260.00  1270.00  1280.00  1290.00  1300.00  1310.00  1320.00
 RHO, KG/CU M    1.9396 0 1.9242 0 1.9091 0 1.8942 0 1.8795 0 1.8650 0 1.8508 0 1.8368 0
 H, KJ/KG         14062.8  14217.6  14372.7  14528.1  14683.6  14839.4  14995.4  15151.6
 U, KJ/KG         8907.15  9020.79  9134.65  9248.73  9363.02  9477.54  9592.28  9707.23
 G, KJ/KG        -69504.1 -70173.3 -70843.7 -71515.3 -72188.1 -72862.1 -73537.3 -74213.8
 S, KJ/(KG)(K)    66.8535  66.9769  67.0995  67.2214  67.3424  67.4627  67.5822  67.7010

 M, (1/n)           2.016    2.016    2.016    2.016    2.016    2.016    2.016    2.016
 (dLV/dLP)t      -1.00000 -1.00000 -1.00000 -1.00000 -1.00000 -1.00000 -1.00000 -1.00000
 (dLV/dLT)p        1.0000   1.0000   1.0000   1.0000   1.0000   1.0000   1.0000   1.0000
 Cp, KJ/(KG)(K)   15.4774  15.4993  15.5212  15.5431  15.5651  15.5872  15.6092  15.6313
 GAMMAs            1.3633   1.3626   1.3619   1.3612   1.3605   1.3598   1.3591   1.3584
 SON VEL,M/SEC     2651.2   2661.1   2670.9   2680.7   2690.5   2700.2   2709.9   2719.5

 TRANSPORT PROPERTIES (GASES ONLY)
   CONDUCTIVITY IN UNITS OF MILLIWATTS/(CM)(K)

 VISC,MILLIPOISE  0.24020  0.24153  0.24286  0.24418  0.24551  0.24682  0.24814  0.24945

  WITH EQUILIBRIUM REACTIONS

 Cp, KJ/(KG)(K)   15.4774  15.4993  15.5212  15.5431  15.5651  15.5872  15.6092  15.6313
 CONDUCTIVITY      5.3260   5.3620   5.3980   5.4341   5.4702   5.5063   5.5425   5.5787
 PRANDTL NUMBER    0.6980   0.6982   0.6983   0.6984   0.6986   0.6987   0.6988   0.6990

  WITH FROZEN REACTIONS

 Cp, KJ/(KG)(K)   15.4773  15.4992  15.5211  15.5430  15.5650  15.5870  15.6090  15.6310
 CONDUCTIVITY      5.3259   5.3619   5.3979   5.4340   5.4701   5.5062   5.5423   5.5785
 PRANDTL NUMBER    0.6980   0.6982   0.6983   0.6985   0.6986   0.6987   0.6988   0.6990

 MOLE FRACTIONS

 *H2              1.00000  1.00000  1.00000  1.00000  1.00000  1.00000  1.00000  1.00000

  * THERMODYNAMIC PROPERTIES FITTED TO 20000.K

 NOTE. WEIGHT FRACTION OF FUEL IN TOTAL FUELS AND OF OXIDANT IN TOTAL OXIDANTS









               THERMODYNAMIC EQUILIBRIUM PROPERTIES AT ASSIGNED

                           TEMPERATURE AND PRESSURE

 CASE =                

             REACTANT                    WT FRACTION      ENERGY      TEMP
                                          (SEE NOTE)     KJ/KG-MOL      K  
             H2                           1.0000000         0.000      0.000

 O/F=    0.00000  %FUEL=100.000000  R,EQ.RATIO= 0.000000  PHI,EQ.RATIO= 0.000000

 THERMODYNAMIC PROPERTIES

 P, BAR            100.00   100.00   110.00   110.00   110.00   110.00   110.00   110.00
 T, K             1330.00  1340.00  1200.00  1210.00  1220.00  1230.00  1240.00  1250.00
 RHO, KG/CU M    1.8230 0 1.8094 0 2.2225 0 2.2041 0 2.1861 0 2.1683 0 2.1508 0 2.1336 0
 H, KJ/KG         15308.0  15464.6  13291.6  13445.4  13599.4  13753.6  13908.1  14062.8
 U, KJ/KG         9822.41  9937.81  8342.22  8454.77  8567.54  8680.53  8793.73  8907.15
 G, KJ/KG        -74891.4 -75570.1 -65705.5 -66364.4 -67024.6 -67686.0 -68348.8 -69012.7
 S, KJ/(KG)(K)    67.8191  67.9364  65.8309  65.9585  66.0852  66.2111  66.3362  66.4604

 M, (1/n)           2.016    2.016    2.016    2.016    2.016    2.016    2.016    2.016
 (dLV/dLP)t      -1.00000 -1.00000 -1.00000 -1.00000 -1.00000 -1.00000 -1.00000 -1.00000
 (dLV/dLT)p        1.0000   1.0000   1.0000   1.0000   1.0000   1.0000   1.0000   1.0000
 Cp, KJ/(KG)(K)   15.6534  15.6755  15.3693  15.3908  15.4123  15.4339  15.4556  15.4774
 GAMMAs            1.3578   1.3571   1.3668   1.3661   1.3654   1.3647   1.3640   1.3633
 SON VEL,M/SEC     2729.1   2738.7   2600.9   2611.1   2621.2   2631.2   2641.2   2651.2

 TRANSPORT PROPERTIES (GASES ONLY)
   CONDUCTIVITY IN UNITS OF MILLIWATTS/(CM)(K)

 VISC,MILLIPOISE  0.25076  0.25207  0.23350  0.23485  0.23619  0.23753  0.23887  0.24020

  WITH EQUILIBRIUM REACTIONS

 Cp, KJ/(KG)(K)   15.6534  15.6755  15.3693  15.3908  15.4123  15.4339  15.4556  15.4774
 CONDUCTIVITY      5.6149   5.6511   5.1466   5.1824   5.2182   5.2541   5.2900   5.3260
 PRANDTL NUMBER    0.6991   0.6992   0.6973   0.6975   0.6976   0.6978   0.6979   0.6980

  WITH FROZEN REACTIONS

 Cp, KJ/(KG)(K)   15.6531  15.6752  15.3693  15.3907  15.4123  15.4339  15.4556  15.4773
 CONDUCTIVITY      5.6147   5.6509   5.1466   5.1823   5.2182   5.2540   5.2900   5.3259
 PRANDTL NUMBER    0.6991   0.6992   0.6973   0.6975   0.6976   0.6978   0.6979   0.6980

 MOLE FRACTIONS

 *H2              1.00000  1.00000  1.00000  1.00000  1.00000  1.00000  1.00000  1.00000

  * THERMODYNAMIC PROPERTIES FITTED TO 20000.K

 NOTE. WEIGHT FRACTION OF FUEL IN TOTAL FUELS AND OF OXIDANT IN TOTAL OXIDANTS









               THERMODYNAMIC EQUILIBRIUM PROPERTIES AT ASSIGNED

                           TEMPERATURE AND PRESSURE

 CASE =                

             REACTANT                    WT FRACTION      ENERGY      TEMP
                                          (SEE NOTE)     KJ/KG-MOL      K  
             H2                           1.0000000         0.000      0.000

 O/F=    0.00000  %FUEL=100.000000  R,EQ.RATIO= 0.000000  PHI,EQ.RATIO= 0.000000

 THERMODYNAMIC PROPERTIES

 P, BAR            110.00   110.00   110.00   110.00   110.00   110.00   110.00   110.00
 T, K             1260.00  1270.00  1280.00  1290.00  1300.00  1310.00  1320.00  1330.00
 RHO, KG/CU M    2.1167 0 2.1000 0 2.0836 0 2.0674 0 2.0515 0 2.0359 0 2.0205 0 2.0053 0
 H, KJ/KG         14217.6  14372.7  14528.1  14683.6  14839.4  14995.4  15151.6  15308.0
 U, KJ/KG         9020.79  9134.65  9248.72  9363.02  9477.54  9592.27  9707.23  9822.41
 G, KJ/KG        -69678.0 -70344.4 -71012.1 -71681.0 -72351.1 -73022.4 -73694.9 -74368.5
 S, KJ/(KG)(K)    66.5838  66.7064  66.8282  66.9493  67.0696  67.1891  67.3079  67.4259

 M, (1/n)           2.016    2.016    2.016    2.016    2.016    2.016    2.016    2.016
 (dLV/dLP)t      -1.00000 -1.00000 -1.00000 -1.00000 -1.00000 -1.00000 -1.00000 -1.00000
 (dLV/dLT)p        1.0000   1.0000   1.0000   1.0000   1.0000   1.0000   1.0000   1.0000
 Cp, KJ/(KG)(K)   15.4993  15.5212  15.5431  15.5651  15.5872  15.6092  15.6313  15.6534
 GAMMAs            1.3626   1.3619   1.3612   1.3605   1.3598   1.3591   1.3584   1.3578
 SON VEL,M/SEC     2661.1   2670.9   2680.7   2690.5   2700.2   2709.9   2719.5   2729.1

 TRANSPORT PROPERTIES (GASES ONLY)
   CONDUCTIVITY IN UNITS OF MILLIWATTS/(CM)(K)

 VISC,MILLIPOISE  0.24153  0.24286  0.24418  0.24551  0.24682  0.24814  0.24945  0.25076

  WITH EQUILIBRIUM REACTIONS

 Cp, KJ/(KG)(K)   15.4993  15.5212  15.5431  15.5651  15.5872  15.6092  15.6313  15.6534
 CONDUCTIVITY      5.3620   5.3980   5.4341   5.4702   5.5063   5.5425   5.5786   5.6149
 PRANDTL NUMBER    0.6982   0.6983   0.6984   0.6986   0.6987   0.6988   0.6990   0.6991

  WITH FROZEN REACTIONS

 Cp, KJ/(KG)(K)   15.4992  15.5211  15.5430  15.5650  15.5870  15.6090  15.6310  15.6531
 CONDUCTIVITY      5.3619   5.3979   5.4340   5.4701   5.5062   5.5423   5.5785   5.6147
 PRANDTL NUMBER    0.6982   0.6983   0.6985   0.6986   0.6987   0.6988   0.6990   0.6991

 MOLE FRACTIONS

 *H2              1.00000  1.00000  1.00000  1.00000  1.00000  1.00000  1.00000  1.00000

  * THERMODYNAMIC PROPERTIES FITTED TO 20000.K

 NOTE. WEIGHT FRACTION OF FUEL IN TOTAL FUELS AND OF OXIDANT IN TOTAL OXIDANTS









               THERMODYNAMIC EQUILIBRIUM PROPERTIES AT ASSIGNED

                           TEMPERATURE AND PRESSURE

 CASE =                

             REACTANT                    WT FRACTION      ENERGY      TEMP
                                          (SEE NOTE)     KJ/KG-MOL      K  
             H2                           1.0000000         0.000      0.000

 O/F=    0.00000  %FUEL=100.000000  R,EQ.RATIO= 0.000000  PHI,EQ.RATIO= 0.000000

 THERMODYNAMIC PROPERTIES

 P, BAR            110.00   120.00   120.00   120.00   120.00   120.00   120.00   120.00
 T, K             1340.00  1200.00  1210.00  1220.00  1230.00  1240.00  1250.00  1260.00
 RHO, KG/CU M    1.9903 0 2.4245 0 2.4045 0 2.3848 0 2.3654 0 2.3463 0 2.3276 0 2.3091 0
 H, KJ/KG         15464.6  13291.6  13445.4  13599.4  13753.6  13908.1  14062.8  14217.6
 U, KJ/KG         9937.81  8342.22  8454.77  8567.54  8680.53  8793.73  8907.15  9020.79
 G, KJ/KG        -75043.4 -65274.8 -65930.1 -66586.7 -67244.6 -67903.8 -68564.1 -69225.8
 S, KJ/(KG)(K)    67.5433  65.4720  65.5996  65.7263  65.8522  65.9773  66.1015  66.2249

 M, (1/n)           2.016    2.016    2.016    2.016    2.016    2.016    2.016    2.016
 (dLV/dLP)t      -1.00000 -1.00000 -1.00000 -1.00000 -1.00000 -1.00000 -1.00000 -1.00000
 (dLV/dLT)p        1.0000   1.0000   1.0000   1.0000   1.0000   1.0000   1.0000   1.0000
 Cp, KJ/(KG)(K)   15.6755  15.3693  15.3908  15.4123  15.4339  15.4556  15.4774  15.4993
 GAMMAs            1.3571   1.3668   1.3661   1.3654   1.3647   1.3640   1.3633   1.3626
 SON VEL,M/SEC     2738.7   2600.9   2611.1   2621.2   2631.2   2641.2   2651.2   2661.1

 TRANSPORT PROPERTIES (GASES ONLY)
   CONDUCTIVITY IN UNITS OF MILLIWATTS/(CM)(K)

 VISC,MILLIPOISE  0.25207  0.23350  0.23485  0.23619  0.23753  0.23887  0.24020  0.24153

  WITH EQUILIBRIUM REACTIONS

 Cp, KJ/(KG)(K)   15.6755  15.3693  15.3908  15.4123  15.4339  15.4556  15.4774  15.4993
 CONDUCTIVITY      5.6511   5.1466   5.1824   5.2182   5.2541   5.2900   5.3260   5.3620
 PRANDTL NUMBER    0.6992   0.6973   0.6975   0.6976   0.6978   0.6979   0.6980   0.6982

  WITH FROZEN REACTIONS

 Cp, KJ/(KG)(K)   15.6752  15.3693  15.3907  15.4123  15.4339  15.4556  15.4773  15.4992
 CONDUCTIVITY      5.6509   5.1466   5.1823   5.2182   5.2540   5.2900   5.3259   5.3619
 PRANDTL NUMBER    0.6992   0.6973   0.6975   0.6976   0.6978   0.6979   0.6980   0.6982

 MOLE FRACTIONS

 *H2              1.00000  1.00000  1.00000  1.00000  1.00000  1.00000  1.00000  1.00000

  * THERMODYNAMIC PROPERTIES FITTED TO 20000.K

 NOTE. WEIGHT FRACTION OF FUEL IN TOTAL FUELS AND OF OXIDANT IN TOTAL OXIDANTS









               THERMODYNAMIC EQUILIBRIUM PROPERTIES AT ASSIGNED

                           TEMPERATURE AND PRESSURE

 CASE =                

             REACTANT                    WT FRACTION      ENERGY      TEMP
                                          (SEE NOTE)     KJ/KG-MOL      K  
             H2                           1.0000000         0.000      0.000

 O/F=    0.00000  %FUEL=100.000000  R,EQ.RATIO= 0.000000  PHI,EQ.RATIO= 0.000000

 THERMODYNAMIC PROPERTIES

 P, BAR            120.00   120.00   120.00   120.00   120.00   120.00   120.00   120.00
 T, K             1270.00  1280.00  1290.00  1300.00  1310.00  1320.00  1330.00  1340.00
 RHO, KG/CU M    2.2909 0 2.2730 0 2.2554 0 2.2380 0 2.2210 0 2.2041 0 2.1876 0 2.1712 0
 H, KJ/KG         14372.7  14528.1  14683.6  14839.4  14995.4  15151.6  15308.0  15464.6
 U, KJ/KG         9134.65  9248.72  9363.02  9477.54  9592.27  9707.23  9822.41  9937.81
 G, KJ/KG        -69888.6 -70552.7 -71218.0 -71884.5 -72552.2 -73221.1 -73891.2 -74562.5
 S, KJ/(KG)(K)    66.3475  66.4694  66.5904  66.7107  66.8302  66.9490  67.0671  67.1844

 M, (1/n)           2.016    2.016    2.016    2.016    2.016    2.016    2.016    2.016
 (dLV/dLP)t      -1.00000 -1.00000 -1.00000 -1.00000 -1.00000 -1.00000 -1.00000 -1.00000
 (dLV/dLT)p        1.0000   1.0000   1.0000   1.0000   1.0000   1.0000   1.0000   1.0000
 Cp, KJ/(KG)(K)   15.5212  15.5431  15.5651  15.5872  15.6092  15.6313  15.6534  15.6755
 GAMMAs            1.3619   1.3612   1.3605   1.3598   1.3591   1.3584   1.3578   1.3571
 SON VEL,M/SEC     2670.9   2680.7   2690.5   2700.2   2709.9   2719.5   2729.1   2738.7

 TRANSPORT PROPERTIES (GASES ONLY)
   CONDUCTIVITY IN UNITS OF MILLIWATTS/(CM)(K)

 VISC,MILLIPOISE  0.24286  0.24418  0.24551  0.24682  0.24814  0.24945  0.25076  0.25207

  WITH EQUILIBRIUM REACTIONS

 Cp, KJ/(KG)(K)   15.5212  15.5431  15.5651  15.5872  15.6092  15.6313  15.6534  15.6755
 CONDUCTIVITY      5.3980   5.4341   5.4702   5.5063   5.5424   5.5786   5.6149   5.6511
 PRANDTL NUMBER    0.6983   0.6984   0.6986   0.6987   0.6988   0.6990   0.6991   0.6992

  WITH FROZEN REACTIONS

 Cp, KJ/(KG)(K)   15.5211  15.5430  15.5650  15.5870  15.6090  15.6310  15.6531  15.6752
 CONDUCTIVITY      5.3979   5.4340   5.4701   5.5062   5.5423   5.5785   5.6147   5.6509
 PRANDTL NUMBER    0.6983   0.6985   0.6986   0.6987   0.6988   0.6990   0.6991   0.6992

 MOLE FRACTIONS

 *H2              1.00000  1.00000  1.00000  1.00000  1.00000  1.00000  1.00000  1.00000

  * THERMODYNAMIC PROPERTIES FITTED TO 20000.K

 NOTE. WEIGHT FRACTION OF FUEL IN TOTAL FUELS AND OF OXIDANT IN TOTAL OXIDANTS









               THERMODYNAMIC EQUILIBRIUM PROPERTIES AT ASSIGNED

                           TEMPERATURE AND PRESSURE

 CASE =                

             REACTANT                    WT FRACTION      ENERGY      TEMP
                                          (SEE NOTE)     KJ/KG-MOL      K  
             H2                           1.0000000         0.000      0.000

 O/F=    0.00000  %FUEL=100.000000  R,EQ.RATIO= 0.000000  PHI,EQ.RATIO= 0.000000

 THERMODYNAMIC PROPERTIES

 P, BAR            132.00   132.00   132.00   132.00   132.00   132.00   132.00   132.00
 T, K             1200.00  1210.00  1220.00  1230.00  1240.00  1250.00  1260.00  1270.00
 RHO, KG/CU M    2.6670 0 2.6450 0 2.6233 0 2.6019 0 2.5810 0 2.5603 0 2.5400 0 2.5200 0
 H, KJ/KG         13291.6  13445.4  13599.4  13753.6  13908.1  14062.8  14217.6  14372.7
 U, KJ/KG         8342.22  8454.77  8567.54  8680.53  8793.73  8907.15  9020.79  9134.65
 G, KJ/KG        -64803.1 -65454.5 -66107.1 -66761.1 -67416.3 -68072.8 -68730.5 -69389.4
 S, KJ/(KG)(K)    65.0789  65.2065  65.3332  65.4591  65.5842  65.7084  65.8318  65.9544

 M, (1/n)           2.016    2.016    2.016    2.016    2.016    2.016    2.016    2.016
 (dLV/dLP)t      -1.00000 -1.00000 -1.00000 -1.00000 -1.00000 -1.00000 -1.00000 -1.00000
 (dLV/dLT)p        1.0000   1.0000   1.0000   1.0000   1.0000   1.0000   1.0000   1.0000
 Cp, KJ/(KG)(K)   15.3693  15.3908  15.4123  15.4339  15.4556  15.4774  15.4993  15.5212
 GAMMAs            1.3668   1.3661   1.3654   1.3647   1.3640   1.3633   1.3626   1.3619
 SON VEL,M/SEC     2600.9   2611.1   2621.2   2631.2   2641.2   2651.2   2661.1   2670.9

 TRANSPORT PROPERTIES (GASES ONLY)
   CONDUCTIVITY IN UNITS OF MILLIWATTS/(CM)(K)

 VISC,MILLIPOISE  0.23350  0.23485  0.23619  0.23753  0.23887  0.24020  0.24153  0.24286

  WITH EQUILIBRIUM REACTIONS

 Cp, KJ/(KG)(K)   15.3693  15.3908  15.4123  15.4339  15.4556  15.4774  15.4993  15.5212
 CONDUCTIVITY      5.1466   5.1824   5.2182   5.2541   5.2900   5.3260   5.3620   5.3980
 PRANDTL NUMBER    0.6973   0.6975   0.6976   0.6978   0.6979   0.6980   0.6982   0.6983

  WITH FROZEN REACTIONS

 Cp, KJ/(KG)(K)   15.3693  15.3907  15.4123  15.4339  15.4556  15.4773  15.4992  15.5211
 CONDUCTIVITY      5.1466   5.1823   5.2182   5.2540   5.2900   5.3259   5.3619   5.3979
 PRANDTL NUMBER    0.6973   0.6975   0.6976   0.6978   0.6979   0.6980   0.6982   0.6983

 MOLE FRACTIONS

 *H2              1.00000  1.00000  1.00000  1.00000  1.00000  1.00000  1.00000  1.00000

  * THERMODYNAMIC PROPERTIES FITTED TO 20000.K

 NOTE. WEIGHT FRACTION OF FUEL IN TOTAL FUELS AND OF OXIDANT IN TOTAL OXIDANTS









               THERMODYNAMIC EQUILIBRIUM PROPERTIES AT ASSIGNED

                           TEMPERATURE AND PRESSURE

 CASE =                

             REACTANT                    WT FRACTION      ENERGY      TEMP
                                          (SEE NOTE)     KJ/KG-MOL      K  
             H2                           1.0000000         0.000      0.000

 O/F=    0.00000  %FUEL=100.000000  R,EQ.RATIO= 0.000000  PHI,EQ.RATIO= 0.000000

 THERMODYNAMIC PROPERTIES

 P, BAR            132.00   132.00   132.00   132.00   132.00   132.00   132.00   148.00
 T, K             1280.00  1290.00  1300.00  1310.00  1320.00  1330.00  1340.00  1200.00
 RHO, KG/CU M    2.5003 0 2.4809 0 2.4618 0 2.4431 0 2.4245 0 2.4063 0 2.3884 0 2.9903 0
 H, KJ/KG         14528.1  14683.6  14839.4  14995.4  15151.6  15308.0  15464.6  13291.6
 U, KJ/KG         9248.72  9363.02  9477.54  9592.27  9707.23  9822.41  9937.81  8342.22
 G, KJ/KG        -70049.5 -70710.9 -71373.5 -72037.3 -72702.2 -73368.4 -74035.7 -64236.8
 S, KJ/(KG)(K)    66.0763  66.1973  66.3176  66.4371  66.5559  66.6740  66.7913  64.6070

 M, (1/n)           2.016    2.016    2.016    2.016    2.016    2.016    2.016    2.016
 (dLV/dLP)t      -1.00000 -1.00000 -1.00000 -1.00000 -1.00000 -1.00000 -1.00000 -1.00000
 (dLV/dLT)p        1.0000   1.0000   1.0000   1.0000   1.0000   1.0000   1.0000   1.0000
 Cp, KJ/(KG)(K)   15.5431  15.5651  15.5871  15.6092  15.6313  15.6534  15.6755  15.3693
 GAMMAs            1.3612   1.3605   1.3598   1.3591   1.3584   1.3578   1.3571   1.3668
 SON VEL,M/SEC     2680.7   2690.5   2700.2   2709.9   2719.5   2729.1   2738.7   2600.9

 TRANSPORT PROPERTIES (GASES ONLY)
   CONDUCTIVITY IN UNITS OF MILLIWATTS/(CM)(K)

 VISC,MILLIPOISE  0.24418  0.24551  0.24682  0.24814  0.24945  0.25076  0.25207  0.23350

  WITH EQUILIBRIUM REACTIONS

 Cp, KJ/(KG)(K)   15.5431  15.5651  15.5871  15.6092  15.6313  15.6534  15.6755  15.3693
 CONDUCTIVITY      5.4341   5.4701   5.5063   5.5424   5.5786   5.6149   5.6511   5.1466
 PRANDTL NUMBER    0.6984   0.6986   0.6987   0.6988   0.6990   0.6991   0.6992   0.6973

  WITH FROZEN REACTIONS

 Cp, KJ/(KG)(K)   15.5430  15.5650  15.5870  15.6090  15.6310  15.6531  15.6752  15.3693
 CONDUCTIVITY      5.4340   5.4701   5.5062   5.5423   5.5785   5.6147   5.6509   5.1466
 PRANDTL NUMBER    0.6985   0.6986   0.6987   0.6988   0.6990   0.6991   0.6992   0.6973

 MOLE FRACTIONS

 *H2              1.00000  1.00000  1.00000  1.00000  1.00000  1.00000  1.00000  1.00000

  * THERMODYNAMIC PROPERTIES FITTED TO 20000.K

 NOTE. WEIGHT FRACTION OF FUEL IN TOTAL FUELS AND OF OXIDANT IN TOTAL OXIDANTS









               THERMODYNAMIC EQUILIBRIUM PROPERTIES AT ASSIGNED

                           TEMPERATURE AND PRESSURE

 CASE =                

             REACTANT                    WT FRACTION      ENERGY      TEMP
                                          (SEE NOTE)     KJ/KG-MOL      K  
             H2                           1.0000000         0.000      0.000

 O/F=    0.00000  %FUEL=100.000000  R,EQ.RATIO= 0.000000  PHI,EQ.RATIO= 0.000000

 THERMODYNAMIC PROPERTIES

 P, BAR            148.00   148.00   148.00   148.00   148.00   148.00   148.00   148.00
 T, K             1210.00  1220.00  1230.00  1240.00  1250.00  1260.00  1270.00  1280.00
 RHO, KG/CU M    2.9656 0 2.9412 0 2.9173 0 2.8938 0 2.8707 0 2.8479 0 2.8255 0 2.8034 0
 H, KJ/KG         13445.4  13599.4  13753.6  13908.1  14062.8  14217.6  14372.7  14528.1
 U, KJ/KG         8454.77  8567.54  8680.53  8793.73  8907.15  9020.79  9134.65  9248.72
 G, KJ/KG        -64883.5 -65531.4 -66180.7 -66831.2 -67482.9 -68135.9 -68790.1 -69445.5
 S, KJ/(KG)(K)    64.7346  64.8613  64.9872  65.1123  65.2365  65.3599  65.4826  65.6044

 M, (1/n)           2.016    2.016    2.016    2.016    2.016    2.016    2.016    2.016
 (dLV/dLP)t      -1.00000 -1.00000 -1.00000 -1.00000 -1.00000 -1.00000 -1.00000 -1.00000
 (dLV/dLT)p        1.0000   1.0000   1.0000   1.0000   1.0000   1.0000   1.0000   1.0000
 Cp, KJ/(KG)(K)   15.3908  15.4123  15.4339  15.4556  15.4774  15.4993  15.5212  15.5431
 GAMMAs            1.3661   1.3654   1.3647   1.3640   1.3633   1.3626   1.3619   1.3612
 SON VEL,M/SEC     2611.1   2621.2   2631.2   2641.2   2651.2   2661.1   2670.9   2680.7

 TRANSPORT PROPERTIES (GASES ONLY)
   CONDUCTIVITY IN UNITS OF MILLIWATTS/(CM)(K)

 VISC,MILLIPOISE  0.23485  0.23619  0.23753  0.23887  0.24020  0.24153  0.24286  0.24418

  WITH EQUILIBRIUM REACTIONS

 Cp, KJ/(KG)(K)   15.3908  15.4123  15.4339  15.4556  15.4774  15.4993  15.5212  15.5431
 CONDUCTIVITY      5.1824   5.2182   5.2541   5.2900   5.3260   5.3620   5.3980   5.4340
 PRANDTL NUMBER    0.6975   0.6976   0.6978   0.6979   0.6980   0.6982   0.6983   0.6984

  WITH FROZEN REACTIONS

 Cp, KJ/(KG)(K)   15.3907  15.4123  15.4339  15.4556  15.4773  15.4992  15.5211  15.5430
 CONDUCTIVITY      5.1823   5.2182   5.2540   5.2900   5.3259   5.3619   5.3979   5.4340
 PRANDTL NUMBER    0.6975   0.6976   0.6978   0.6979   0.6980   0.6982   0.6983   0.6985

 MOLE FRACTIONS

 *H2              1.00000  1.00000  1.00000  1.00000  1.00000  1.00000  1.00000  1.00000

  * THERMODYNAMIC PROPERTIES FITTED TO 20000.K

 NOTE. WEIGHT FRACTION OF FUEL IN TOTAL FUELS AND OF OXIDANT IN TOTAL OXIDANTS









               THERMODYNAMIC EQUILIBRIUM PROPERTIES AT ASSIGNED

                           TEMPERATURE AND PRESSURE

 CASE =                

             REACTANT                    WT FRACTION      ENERGY      TEMP
                                          (SEE NOTE)     KJ/KG-MOL      K  
             H2                           1.0000000         0.000      0.000

 O/F=    0.00000  %FUEL=100.000000  R,EQ.RATIO= 0.000000  PHI,EQ.RATIO= 0.000000

 THERMODYNAMIC PROPERTIES

 P, BAR            148.00   148.00   148.00   148.00   148.00   148.00   165.00   165.00
 T, K             1290.00  1300.00  1310.00  1320.00  1330.00  1340.00  1200.00  1210.00
 RHO, KG/CU M    2.7816 0 2.7603 0 2.7392 0 2.7184 0 2.6980 0 2.6779 0 3.3337 0 3.3062 0
 H, KJ/KG         14683.6  14839.4  14995.4  15151.6  15308.0  15464.6  13291.6  13445.4
 U, KJ/KG         9363.02  9477.54  9592.27  9707.23  9822.41  9937.81  8342.22  8454.77
 G, KJ/KG        -70102.2 -70760.0 -71419.1 -72079.3 -72740.8 -73403.4 -63698.6 -64340.8
 S, KJ/(KG)(K)    65.7254  65.8457  65.9652  66.0840  66.2021  66.3194  64.1585  64.2861

 M, (1/n)           2.016    2.016    2.016    2.016    2.016    2.016    2.016    2.016
 (dLV/dLP)t      -1.00000 -1.00000 -1.00000 -1.00000 -1.00000 -1.00000 -1.00000 -1.00000
 (dLV/dLT)p        1.0000   1.0000   1.0000   1.0000   1.0000   1.0000   1.0000   1.0000
 Cp, KJ/(KG)(K)   15.5651  15.5871  15.6092  15.6313  15.6533  15.6754  15.3693  15.3908
 GAMMAs            1.3605   1.3598   1.3591   1.3585   1.3578   1.3571   1.3668   1.3661
 SON VEL,M/SEC     2690.5   2700.2   2709.9   2719.5   2729.1   2738.7   2600.9   2611.1

 TRANSPORT PROPERTIES (GASES ONLY)
   CONDUCTIVITY IN UNITS OF MILLIWATTS/(CM)(K)

 VISC,MILLIPOISE  0.24551  0.24682  0.24814  0.24945  0.25076  0.25207  0.23350  0.23485

  WITH EQUILIBRIUM REACTIONS

 Cp, KJ/(KG)(K)   15.5651  15.5871  15.6092  15.6313  15.6533  15.6754  15.3693  15.3908
 CONDUCTIVITY      5.4701   5.5063   5.5424   5.5786   5.6149   5.6511   5.1466   5.1824
 PRANDTL NUMBER    0.6986   0.6987   0.6988   0.6990   0.6991   0.6992   0.6973   0.6975

  WITH FROZEN REACTIONS

 Cp, KJ/(KG)(K)   15.5650  15.5870  15.6090  15.6310  15.6531  15.6752  15.3693  15.3907
 CONDUCTIVITY      5.4701   5.5062   5.5423   5.5785   5.6147   5.6509   5.1466   5.1823
 PRANDTL NUMBER    0.6986   0.6987   0.6988   0.6990   0.6991   0.6992   0.6973   0.6975

 MOLE FRACTIONS

 *H2              1.00000  1.00000  1.00000  1.00000  1.00000  1.00000  1.00000  1.00000

  * THERMODYNAMIC PROPERTIES FITTED TO 20000.K

 NOTE. WEIGHT FRACTION OF FUEL IN TOTAL FUELS AND OF OXIDANT IN TOTAL OXIDANTS









               THERMODYNAMIC EQUILIBRIUM PROPERTIES AT ASSIGNED

                           TEMPERATURE AND PRESSURE

 CASE =                

             REACTANT                    WT FRACTION      ENERGY      TEMP
                                          (SEE NOTE)     KJ/KG-MOL      K  
             H2                           1.0000000         0.000      0.000

 O/F=    0.00000  %FUEL=100.000000  R,EQ.RATIO= 0.000000  PHI,EQ.RATIO= 0.000000

 THERMODYNAMIC PROPERTIES

 P, BAR            165.00   165.00   165.00   165.00   165.00   165.00   165.00   165.00
 T, K             1220.00  1230.00  1240.00  1250.00  1260.00  1270.00  1280.00  1290.00
 RHO, KG/CU M    3.2791 0 3.2524 0 3.2262 0 3.2004 0 3.1750 0 3.1500 0 3.1254 0 3.1012 0
 H, KJ/KG         13599.4  13753.6  13908.1  14062.8  14217.6  14372.7  14528.1  14683.6
 U, KJ/KG         8567.54  8680.53  8793.73  8907.15  9020.79  9134.65  9248.72  9363.02
 G, KJ/KG        -64984.3 -65629.0 -66275.1 -66922.3 -67570.8 -68220.5 -68871.5 -69523.7
 S, KJ/(KG)(K)    64.4129  64.5388  64.6638  64.7881  64.9115  65.0341  65.1559  65.2769

 M, (1/n)           2.016    2.016    2.016    2.016    2.016    2.016    2.016    2.016
 (dLV/dLP)t      -1.00000 -1.00000 -1.00000 -1.00000 -1.00000 -1.00000 -1.00000 -1.00000
 (dLV/dLT)p        1.0000   1.0000   1.0000   1.0000   1.0000   1.0000   1.0000   1.0000
 Cp, KJ/(KG)(K)   15.4123  15.4339  15.4556  15.4774  15.4993  15.5212  15.5431  15.5651
 GAMMAs            1.3654   1.3647   1.3640   1.3633   1.3626   1.3619   1.3612   1.3605
 SON VEL,M/SEC     2621.2   2631.2   2641.2   2651.2   2661.1   2670.9   2680.7   2690.5

 TRANSPORT PROPERTIES (GASES ONLY)
   CONDUCTIVITY IN UNITS OF MILLIWATTS/(CM)(K)

 VISC,MILLIPOISE  0.23619  0.23753  0.23887  0.24020  0.24153  0.24286  0.24418  0.24551

  WITH EQUILIBRIUM REACTIONS

 Cp, KJ/(KG)(K)   15.4123  15.4339  15.4556  15.4774  15.4993  15.5212  15.5431  15.5651
 CONDUCTIVITY      5.2182   5.2541   5.2900   5.3260   5.3620   5.3980   5.4340   5.4701
 PRANDTL NUMBER    0.6976   0.6978   0.6979   0.6980   0.6982   0.6983   0.6984   0.6986

  WITH FROZEN REACTIONS

 Cp, KJ/(KG)(K)   15.4123  15.4339  15.4556  15.4773  15.4992  15.5211  15.5430  15.5650
 CONDUCTIVITY      5.2182   5.2540   5.2900   5.3259   5.3619   5.3979   5.4340   5.4701
 PRANDTL NUMBER    0.6976   0.6978   0.6979   0.6980   0.6982   0.6983   0.6985   0.6986

 MOLE FRACTIONS

 *H2              1.00000  1.00000  1.00000  1.00000  1.00000  1.00000  1.00000  1.00000

  * THERMODYNAMIC PROPERTIES FITTED TO 20000.K

 NOTE. WEIGHT FRACTION OF FUEL IN TOTAL FUELS AND OF OXIDANT IN TOTAL OXIDANTS









               THERMODYNAMIC EQUILIBRIUM PROPERTIES AT ASSIGNED

                           TEMPERATURE AND PRESSURE

 CASE =                

             REACTANT                    WT FRACTION      ENERGY      TEMP
                                          (SEE NOTE)     KJ/KG-MOL      K  
             H2                           1.0000000         0.000      0.000

 O/F=    0.00000  %FUEL=100.000000  R,EQ.RATIO= 0.000000  PHI,EQ.RATIO= 0.000000

 THERMODYNAMIC PROPERTIES

 P, BAR            165.00   165.00   165.00   165.00   165.00   180.00   180.00   180.00
 T, K             1300.00  1310.00  1320.00  1330.00  1340.00  1200.00  1210.00  1220.00
 RHO, KG/CU M    3.0773 0 3.0538 0 3.0307 0 3.0079 0 2.9854 0 3.6368 0 3.6068 0 3.5772 0
 H, KJ/KG         14839.4  14995.3  15151.6  15308.0  15464.6  13291.6  13445.4  13599.4
 U, KJ/KG         9477.54  9592.27  9707.23  9822.41  9937.81  8342.22  8454.77  8567.54
 G, KJ/KG        -70177.0 -70831.6 -71487.4 -72144.3 -72802.4 -63268.0 -63906.6 -64546.5
 S, KJ/(KG)(K)    65.3972  65.5168  65.6355  65.7536  65.8709  63.7997  63.9273  64.0540

 M, (1/n)           2.016    2.016    2.016    2.016    2.016    2.016    2.016    2.016
 (dLV/dLP)t      -1.00000 -1.00000 -1.00000 -1.00000 -1.00000 -1.00000 -1.00000 -1.00000
 (dLV/dLT)p        1.0000   1.0000   1.0000   1.0000   1.0000   1.0000   1.0000   1.0000
 Cp, KJ/(KG)(K)   15.5871  15.6092  15.6312  15.6533  15.6754  15.3693  15.3908  15.4123
 GAMMAs            1.3598   1.3591   1.3585   1.3578   1.3571   1.3668   1.3661   1.3654
 SON VEL,M/SEC     2700.2   2709.9   2719.5   2729.1   2738.7   2600.9   2611.1   2621.2

 TRANSPORT PROPERTIES (GASES ONLY)
   CONDUCTIVITY IN UNITS OF MILLIWATTS/(CM)(K)

 VISC,MILLIPOISE  0.24682  0.24814  0.24945  0.25076  0.25207  0.23350  0.23485  0.23619

  WITH EQUILIBRIUM REACTIONS

 Cp, KJ/(KG)(K)   15.5871  15.6092  15.6312  15.6533  15.6754  15.3693  15.3908  15.4123
 CONDUCTIVITY      5.5063   5.5424   5.5786   5.6148   5.6511   5.1466   5.1824   5.2182
 PRANDTL NUMBER    0.6987   0.6988   0.6990   0.6991   0.6992   0.6973   0.6975   0.6976

  WITH FROZEN REACTIONS

 Cp, KJ/(KG)(K)   15.5870  15.6090  15.6310  15.6531  15.6752  15.3693  15.3907  15.4123
 CONDUCTIVITY      5.5062   5.5423   5.5785   5.6147   5.6509   5.1466   5.1823   5.2182
 PRANDTL NUMBER    0.6987   0.6988   0.6990   0.6991   0.6992   0.6973   0.6975   0.6976

 MOLE FRACTIONS

 *H2              1.00000  1.00000  1.00000  1.00000  1.00000  1.00000  1.00000  1.00000

  * THERMODYNAMIC PROPERTIES FITTED TO 20000.K

 NOTE. WEIGHT FRACTION OF FUEL IN TOTAL FUELS AND OF OXIDANT IN TOTAL OXIDANTS









               THERMODYNAMIC EQUILIBRIUM PROPERTIES AT ASSIGNED

                           TEMPERATURE AND PRESSURE

 CASE =                

             REACTANT                    WT FRACTION      ENERGY      TEMP
                                          (SEE NOTE)     KJ/KG-MOL      K  
             H2                           1.0000000         0.000      0.000

 O/F=    0.00000  %FUEL=100.000000  R,EQ.RATIO= 0.000000  PHI,EQ.RATIO= 0.000000

 THERMODYNAMIC PROPERTIES

 P, BAR            180.00   180.00   180.00   180.00   180.00   180.00   180.00   180.00
 T, K             1230.00  1240.00  1250.00  1260.00  1270.00  1280.00  1290.00  1300.00
 RHO, KG/CU M    3.5481 0 3.5195 0 3.4913 0 3.4636 0 3.4364 0 3.4095 0 3.3831 0 3.3571 0
 H, KJ/KG         13753.6  13908.1  14062.8  14217.6  14372.7  14528.1  14683.6  14839.4
 U, KJ/KG         8680.53  8793.73  8907.15  9020.79  9134.65  9248.72  9363.02  9477.54
 G, KJ/KG        -65187.6 -65830.0 -66473.7 -67118.6 -67764.8 -68412.1 -69060.7 -69710.5
 S, KJ/(KG)(K)    64.1799  64.3050  64.4292  64.5526  64.6752  64.7970  64.9181  65.0383

 M, (1/n)           2.016    2.016    2.016    2.016    2.016    2.016    2.016    2.016
 (dLV/dLP)t      -1.00000 -1.00000 -1.00000 -1.00000 -1.00000 -1.00000 -1.00000 -1.00000
 (dLV/dLT)p        1.0000   1.0000   1.0000   1.0000   1.0000   1.0000   1.0000   1.0000
 Cp, KJ/(KG)(K)   15.4339  15.4556  15.4774  15.4993  15.5212  15.5431  15.5651  15.5871
 GAMMAs            1.3647   1.3640   1.3633   1.3626   1.3619   1.3612   1.3605   1.3598
 SON VEL,M/SEC     2631.2   2641.2   2651.2   2661.1   2670.9   2680.7   2690.5   2700.2

 TRANSPORT PROPERTIES (GASES ONLY)
   CONDUCTIVITY IN UNITS OF MILLIWATTS/(CM)(K)

 VISC,MILLIPOISE  0.23753  0.23887  0.24020  0.24153  0.24286  0.24418  0.24551  0.24682

  WITH EQUILIBRIUM REACTIONS

 Cp, KJ/(KG)(K)   15.4339  15.4556  15.4774  15.4993  15.5212  15.5431  15.5651  15.5871
 CONDUCTIVITY      5.2541   5.2900   5.3260   5.3620   5.3980   5.4340   5.4701   5.5063
 PRANDTL NUMBER    0.6978   0.6979   0.6980   0.6982   0.6983   0.6984   0.6986   0.6987

  WITH FROZEN REACTIONS

 Cp, KJ/(KG)(K)   15.4339  15.4556  15.4773  15.4992  15.5211  15.5430  15.5650  15.5870
 CONDUCTIVITY      5.2540   5.2900   5.3259   5.3619   5.3979   5.4340   5.4701   5.5062
 PRANDTL NUMBER    0.6978   0.6979   0.6980   0.6982   0.6983   0.6985   0.6986   0.6987

 MOLE FRACTIONS

 *H2              1.00000  1.00000  1.00000  1.00000  1.00000  1.00000  1.00000  1.00000

  * THERMODYNAMIC PROPERTIES FITTED TO 20000.K

 NOTE. WEIGHT FRACTION OF FUEL IN TOTAL FUELS AND OF OXIDANT IN TOTAL OXIDANTS









               THERMODYNAMIC EQUILIBRIUM PROPERTIES AT ASSIGNED

                           TEMPERATURE AND PRESSURE

 CASE =                

             REACTANT                    WT FRACTION      ENERGY      TEMP
                                          (SEE NOTE)     KJ/KG-MOL      K  
             H2                           1.0000000         0.000      0.000

 O/F=    0.00000  %FUEL=100.000000  R,EQ.RATIO= 0.000000  PHI,EQ.RATIO= 0.000000

 THERMODYNAMIC PROPERTIES

 P, BAR            180.00   180.00   180.00   180.00   200.00   200.00   200.00   200.00
 T, K             1310.00  1320.00  1330.00  1340.00  1200.00  1210.00  1220.00  1230.00
 RHO, KG/CU M    3.3314 0 3.3062 0 3.2813 0 3.2569 0 4.0409 0 4.0075 0 3.9747 0 3.9423 0
 H, KJ/KG         14995.3  15151.6  15308.0  15464.6  13291.6  13445.4  13599.4  13753.6
 U, KJ/KG         9592.27  9707.23  9822.41  9937.81  8342.22  8454.77  8567.54  8680.53
 G, KJ/KG        -70361.5 -71013.6 -71667.0 -72321.5 -62746.5 -63380.8 -64016.3 -64653.1
 S, KJ/(KG)(K)    65.1579  65.2767  65.3947  65.5121  63.3651  63.4927  63.6194  63.7453

 M, (1/n)           2.016    2.016    2.016    2.016    2.016    2.016    2.016    2.016
 (dLV/dLP)t      -1.00000 -1.00000 -1.00000 -1.00000 -1.00000 -1.00000 -1.00000 -1.00000
 (dLV/dLT)p        1.0000   1.0000   1.0000   1.0000   1.0000   1.0000   1.0000   1.0000
 Cp, KJ/(KG)(K)   15.6092  15.6312  15.6533  15.6754  15.3693  15.3908  15.4123  15.4339
 GAMMAs            1.3591   1.3585   1.3578   1.3571   1.3668   1.3661   1.3654   1.3647
 SON VEL,M/SEC     2709.9   2719.5   2729.1   2738.7   2600.9   2611.1   2621.2   2631.2

 TRANSPORT PROPERTIES (GASES ONLY)
   CONDUCTIVITY IN UNITS OF MILLIWATTS/(CM)(K)

 VISC,MILLIPOISE  0.24814  0.24945  0.25076  0.25207  0.23350  0.23485  0.23619  0.23753

  WITH EQUILIBRIUM REACTIONS

 Cp, KJ/(KG)(K)   15.6092  15.6312  15.6533  15.6754  15.3693  15.3908  15.4123  15.4339
 CONDUCTIVITY      5.5424   5.5786   5.6148   5.6511   5.1466   5.1824   5.2182   5.2541
 PRANDTL NUMBER    0.6988   0.6990   0.6991   0.6992   0.6973   0.6975   0.6976   0.6978

  WITH FROZEN REACTIONS

 Cp, KJ/(KG)(K)   15.6090  15.6310  15.6531  15.6752  15.3693  15.3907  15.4123  15.4339
 CONDUCTIVITY      5.5423   5.5785   5.6147   5.6509   5.1466   5.1823   5.2182   5.2540
 PRANDTL NUMBER    0.6988   0.6990   0.6991   0.6992   0.6973   0.6975   0.6976   0.6978

 MOLE FRACTIONS

 *H2              1.00000  1.00000  1.00000  1.00000  1.00000  1.00000  1.00000  1.00000

  * THERMODYNAMIC PROPERTIES FITTED TO 20000.K

 NOTE. WEIGHT FRACTION OF FUEL IN TOTAL FUELS AND OF OXIDANT IN TOTAL OXIDANTS









               THERMODYNAMIC EQUILIBRIUM PROPERTIES AT ASSIGNED

                           TEMPERATURE AND PRESSURE

 CASE =                

             REACTANT                    WT FRACTION      ENERGY      TEMP
                                          (SEE NOTE)     KJ/KG-MOL      K  
             H2                           1.0000000         0.000      0.000

 O/F=    0.00000  %FUEL=100.000000  R,EQ.RATIO= 0.000000  PHI,EQ.RATIO= 0.000000

 THERMODYNAMIC PROPERTIES

 P, BAR            200.00   200.00   200.00   200.00   200.00   200.00   200.00   200.00
 T, K             1240.00  1250.00  1260.00  1270.00  1280.00  1290.00  1300.00  1310.00
 RHO, KG/CU M    3.9106 0 3.8793 0 3.8485 0 3.8182 0 3.7884 0 3.7590 0 3.7301 0 3.7016 0
 H, KJ/KG         13908.1  14062.8  14217.6  14372.7  14528.1  14683.6  14839.4  14995.3
 U, KJ/KG         8793.73  8907.15  9020.79  9134.65  9248.72  9363.02  9477.53  9592.27
 G, KJ/KG        -65291.2 -65930.5 -66571.1 -67212.9 -67855.9 -68500.1 -69145.6 -69792.2
 S, KJ/(KG)(K)    63.8704  63.9946  64.1180  64.2406  64.3625  64.4835  64.6038  64.7233

 M, (1/n)           2.016    2.016    2.016    2.016    2.016    2.016    2.016    2.016
 (dLV/dLP)t      -1.00000 -1.00000 -1.00000 -1.00000 -1.00000 -1.00000 -1.00000 -1.00000
 (dLV/dLT)p        1.0000   1.0000   1.0000   1.0000   1.0000   1.0000   1.0000   1.0000
 Cp, KJ/(KG)(K)   15.4556  15.4774  15.4993  15.5212  15.5431  15.5651  15.5871  15.6092
 GAMMAs            1.3640   1.3633   1.3626   1.3619   1.3612   1.3605   1.3598   1.3591
 SON VEL,M/SEC     2641.2   2651.2   2661.1   2670.9   2680.7   2690.5   2700.2   2709.9

 TRANSPORT PROPERTIES (GASES ONLY)
   CONDUCTIVITY IN UNITS OF MILLIWATTS/(CM)(K)

 VISC,MILLIPOISE  0.23887  0.24020  0.24153  0.24286  0.24418  0.24551  0.24682  0.24814

  WITH EQUILIBRIUM REACTIONS

 Cp, KJ/(KG)(K)   15.4556  15.4774  15.4993  15.5212  15.5431  15.5651  15.5871  15.6092
 CONDUCTIVITY      5.2900   5.3260   5.3619   5.3980   5.4340   5.4701   5.5063   5.5424
 PRANDTL NUMBER    0.6979   0.6980   0.6982   0.6983   0.6984   0.6986   0.6987   0.6988

  WITH FROZEN REACTIONS

 Cp, KJ/(KG)(K)   15.4556  15.4773  15.4992  15.5211  15.5430  15.5650  15.5870  15.6090
 CONDUCTIVITY      5.2900   5.3259   5.3619   5.3979   5.4340   5.4701   5.5062   5.5423
 PRANDTL NUMBER    0.6979   0.6980   0.6982   0.6983   0.6985   0.6986   0.6987   0.6988

 MOLE FRACTIONS

 *H2              1.00000  1.00000  1.00000  1.00000  1.00000  1.00000  1.00000  1.00000

  * THERMODYNAMIC PROPERTIES FITTED TO 20000.K

 NOTE. WEIGHT FRACTION OF FUEL IN TOTAL FUELS AND OF OXIDANT IN TOTAL OXIDANTS









               THERMODYNAMIC EQUILIBRIUM PROPERTIES AT ASSIGNED

                           TEMPERATURE AND PRESSURE

 CASE =                

             REACTANT                    WT FRACTION      ENERGY      TEMP
                                          (SEE NOTE)     KJ/KG-MOL      K  
             H2                           1.0000000         0.000      0.000

 O/F=    0.00000  %FUEL=100.000000  R,EQ.RATIO= 0.000000  PHI,EQ.RATIO= 0.000000

 THERMODYNAMIC PROPERTIES

 P, BAR            200.00   200.00   200.00   225.00   225.00   225.00   225.00   225.00
 T, K             1320.00  1330.00  1340.00  1200.00  1210.00  1220.00  1230.00  1240.00
 RHO, KG/CU M    3.6736 0 3.6459 0 3.6187 0 4.5460 0 4.5084 0 4.4715 0 4.4351 0 4.3994 0
 H, KJ/KG         15151.6  15308.0  15464.6  13291.6  13445.4  13599.4  13753.6  13908.1
 U, KJ/KG         9707.23  9822.41  9937.80  8342.22  8454.77  8567.54  8680.53  8793.73
 G, KJ/KG        -70440.0 -71089.0 -71739.2 -62163.6 -62792.9 -63423.6 -64055.6 -64688.8
 S, KJ/(KG)(K)    64.8421  64.9602  65.0775  62.8793  63.0069  63.1336  63.2595  63.3846

 M, (1/n)           2.016    2.016    2.016    2.016    2.016    2.016    2.016    2.016
 (dLV/dLP)t      -1.00000 -1.00000 -1.00000 -1.00000 -1.00000 -1.00000 -1.00000 -1.00000
 (dLV/dLT)p        1.0000   1.0000   1.0000   1.0000   1.0000   1.0000   1.0000   1.0000
 Cp, KJ/(KG)(K)   15.6312  15.6533  15.6754  15.3693  15.3908  15.4123  15.4339  15.4556
 GAMMAs            1.3585   1.3578   1.3571   1.3668   1.3661   1.3654   1.3647   1.3640
 SON VEL,M/SEC     2719.5   2729.1   2738.7   2600.9   2611.1   2621.2   2631.2   2641.2

 TRANSPORT PROPERTIES (GASES ONLY)
   CONDUCTIVITY IN UNITS OF MILLIWATTS/(CM)(K)

 VISC,MILLIPOISE  0.24945  0.25076  0.25207  0.23350  0.23485  0.23619  0.23753  0.23887

  WITH EQUILIBRIUM REACTIONS

 Cp, KJ/(KG)(K)   15.6312  15.6533  15.6754  15.3693  15.3908  15.4123  15.4339  15.4556
 CONDUCTIVITY      5.5786   5.6148   5.6511   5.1466   5.1824   5.2182   5.2541   5.2900
 PRANDTL NUMBER    0.6990   0.6991   0.6992   0.6973   0.6975   0.6976   0.6978   0.6979

  WITH FROZEN REACTIONS

 Cp, KJ/(KG)(K)   15.6310  15.6531  15.6752  15.3693  15.3907  15.4123  15.4339  15.4556
 CONDUCTIVITY      5.5785   5.6147   5.6509   5.1466   5.1823   5.2182   5.2540   5.2900
 PRANDTL NUMBER    0.6990   0.6991   0.6992   0.6973   0.6975   0.6976   0.6978   0.6979

 MOLE FRACTIONS

 *H2              1.00000  1.00000  1.00000  1.00000  1.00000  1.00000  1.00000  1.00000

  * THERMODYNAMIC PROPERTIES FITTED TO 20000.K

 NOTE. WEIGHT FRACTION OF FUEL IN TOTAL FUELS AND OF OXIDANT IN TOTAL OXIDANTS









               THERMODYNAMIC EQUILIBRIUM PROPERTIES AT ASSIGNED

                           TEMPERATURE AND PRESSURE

 CASE =                

             REACTANT                    WT FRACTION      ENERGY      TEMP
                                          (SEE NOTE)     KJ/KG-MOL      K  
             H2                           1.0000000         0.000      0.000

 O/F=    0.00000  %FUEL=100.000000  R,EQ.RATIO= 0.000000  PHI,EQ.RATIO= 0.000000

 THERMODYNAMIC PROPERTIES

 P, BAR            225.00   225.00   225.00   225.00   225.00   225.00   225.00   225.00
 T, K             1250.00  1260.00  1270.00  1280.00  1290.00  1300.00  1310.00  1320.00
 RHO, KG/CU M    4.3642 0 4.3295 0 4.2955 0 4.2619 0 4.2289 0 4.1963 0 4.1643 0 4.1327 0
 H, KJ/KG         14062.8  14217.6  14372.7  14528.1  14683.6  14839.4  14995.3  15151.5
 U, KJ/KG         8907.15  9020.79  9134.65  9248.72  9363.02  9477.53  9592.27  9707.23
 G, KJ/KG        -65323.3 -65959.0 -66595.9 -67234.1 -67873.4 -68514.0 -69155.8 -69798.8
 S, KJ/(KG)(K)    63.5088  63.6322  63.7548  63.8767  63.9977  64.1180  64.2375  64.3563

 M, (1/n)           2.016    2.016    2.016    2.016    2.016    2.016    2.016    2.016
 (dLV/dLP)t      -1.00000 -1.00000 -1.00000 -1.00000 -1.00000 -1.00000 -1.00000 -1.00000
 (dLV/dLT)p        1.0000   1.0000   1.0000   1.0000   1.0000   1.0000   1.0000   1.0000
 Cp, KJ/(KG)(K)   15.4774  15.4993  15.5212  15.5431  15.5651  15.5871  15.6092  15.6312
 GAMMAs            1.3633   1.3626   1.3619   1.3612   1.3605   1.3598   1.3591   1.3585
 SON VEL,M/SEC     2651.2   2661.1   2670.9   2680.7   2690.5   2700.2   2709.9   2719.5

 TRANSPORT PROPERTIES (GASES ONLY)
   CONDUCTIVITY IN UNITS OF MILLIWATTS/(CM)(K)

 VISC,MILLIPOISE  0.24020  0.24153  0.24286  0.24418  0.24551  0.24682  0.24814  0.24945

  WITH EQUILIBRIUM REACTIONS

 Cp, KJ/(KG)(K)   15.4774  15.4993  15.5212  15.5431  15.5651  15.5871  15.6092  15.6312
 CONDUCTIVITY      5.3260   5.3619   5.3980   5.4340   5.4701   5.5063   5.5424   5.5786
 PRANDTL NUMBER    0.6980   0.6982   0.6983   0.6984   0.6986   0.6987   0.6988   0.6990

  WITH FROZEN REACTIONS

 Cp, KJ/(KG)(K)   15.4773  15.4992  15.5211  15.5430  15.5650  15.5870  15.6090  15.6310
 CONDUCTIVITY      5.3259   5.3619   5.3979   5.4340   5.4701   5.5062   5.5423   5.5785
 PRANDTL NUMBER    0.6980   0.6982   0.6983   0.6985   0.6986   0.6987   0.6988   0.6990

 MOLE FRACTIONS

 *H2              1.00000  1.00000  1.00000  1.00000  1.00000  1.00000  1.00000  1.00000

  * THERMODYNAMIC PROPERTIES FITTED TO 20000.K

 NOTE. WEIGHT FRACTION OF FUEL IN TOTAL FUELS AND OF OXIDANT IN TOTAL OXIDANTS









               THERMODYNAMIC EQUILIBRIUM PROPERTIES AT ASSIGNED

                           TEMPERATURE AND PRESSURE

 CASE =                

             REACTANT                    WT FRACTION      ENERGY      TEMP
                                          (SEE NOTE)     KJ/KG-MOL      K  
             H2                           1.0000000         0.000      0.000

 O/F=    0.00000  %FUEL=100.000000  R,EQ.RATIO= 0.000000  PHI,EQ.RATIO= 0.000000

 THERMODYNAMIC PROPERTIES

 P, BAR            225.00   225.00   250.00   250.00   250.00   250.00   250.00   250.00
 T, K             1330.00  1340.00  1200.00  1210.00  1220.00  1230.00  1240.00  1250.00
 RHO, KG/CU M    4.1017 0 4.0711 0 5.0511 0 5.0094 0 4.9683 0 4.9279 0 4.8882 0 4.8491 0
 H, KJ/KG         15308.0  15464.6  13291.6  13445.4  13599.4  13753.6  13908.1  14062.8
 U, KJ/KG         9822.41  9937.80  8342.22  8454.77  8567.54  8680.53  8793.73  8907.15
 G, KJ/KG        -70442.9 -71088.3 -61642.1 -62267.1 -62893.5 -63521.1 -64149.9 -64780.1
 S, KJ/(KG)(K)    64.4744  64.5917  62.4447  62.5723  62.6991  62.8250  62.9500  63.0743

 M, (1/n)           2.016    2.016    2.016    2.016    2.016    2.016    2.016    2.016
 (dLV/dLP)t      -1.00000 -1.00000 -1.00000 -1.00000 -1.00000 -1.00000 -1.00000 -1.00000
 (dLV/dLT)p        1.0000   1.0000   1.0000   1.0000   1.0000   1.0000   1.0000   1.0000
 Cp, KJ/(KG)(K)   15.6533  15.6754  15.3693  15.3908  15.4123  15.4339  15.4556  15.4774
 GAMMAs            1.3578   1.3571   1.3668   1.3661   1.3654   1.3647   1.3640   1.3633
 SON VEL,M/SEC     2729.1   2738.7   2600.9   2611.1   2621.2   2631.2   2641.2   2651.2

 TRANSPORT PROPERTIES (GASES ONLY)
   CONDUCTIVITY IN UNITS OF MILLIWATTS/(CM)(K)

 VISC,MILLIPOISE  0.25076  0.25207  0.23350  0.23485  0.23619  0.23753  0.23887  0.24020

  WITH EQUILIBRIUM REACTIONS

 Cp, KJ/(KG)(K)   15.6533  15.6754  15.3693  15.3908  15.4123  15.4339  15.4556  15.4774
 CONDUCTIVITY      5.6148   5.6511   5.1466   5.1824   5.2182   5.2541   5.2900   5.3260
 PRANDTL NUMBER    0.6991   0.6992   0.6973   0.6975   0.6976   0.6978   0.6979   0.6980

  WITH FROZEN REACTIONS

 Cp, KJ/(KG)(K)   15.6531  15.6752  15.3693  15.3907  15.4123  15.4339  15.4556  15.4773
 CONDUCTIVITY      5.6147   5.6509   5.1466   5.1823   5.2182   5.2540   5.2900   5.3259
 PRANDTL NUMBER    0.6991   0.6992   0.6973   0.6975   0.6976   0.6978   0.6979   0.6980

 MOLE FRACTIONS

 *H2              1.00000  1.00000  1.00000  1.00000  1.00000  1.00000  1.00000  1.00000

  * THERMODYNAMIC PROPERTIES FITTED TO 20000.K

 NOTE. WEIGHT FRACTION OF FUEL IN TOTAL FUELS AND OF OXIDANT IN TOTAL OXIDANTS









               THERMODYNAMIC EQUILIBRIUM PROPERTIES AT ASSIGNED

                           TEMPERATURE AND PRESSURE

 CASE =                

             REACTANT                    WT FRACTION      ENERGY      TEMP
                                          (SEE NOTE)     KJ/KG-MOL      K  
             H2                           1.0000000         0.000      0.000

 O/F=    0.00000  %FUEL=100.000000  R,EQ.RATIO= 0.000000  PHI,EQ.RATIO= 0.000000

 THERMODYNAMIC PROPERTIES

 P, BAR            250.00   250.00   250.00   250.00   250.00   250.00   250.00   250.00
 T, K             1260.00  1270.00  1280.00  1290.00  1300.00  1310.00  1320.00  1330.00
 RHO, KG/CU M    4.8106 0 4.7727 0 4.7354 0 4.6987 0 4.6626 0 4.6270 0 4.5919 0 4.5574 0
 H, KJ/KG         14217.6  14372.7  14528.1  14683.6  14839.4  14995.3  15151.5  15308.0
 U, KJ/KG         9020.79  9134.65  9248.72  9363.02  9477.53  9592.27  9707.23  9822.40
 G, KJ/KG        -65411.4 -66044.0 -66677.8 -67312.9 -67949.1 -68586.5 -69225.2 -69865.0
 S, KJ/(KG)(K)    63.1977  63.3203  63.4421  63.5632  63.6834  63.8030  63.9217  64.0398

 M, (1/n)           2.016    2.016    2.016    2.016    2.016    2.016    2.016    2.016
 (dLV/dLP)t      -1.00000 -1.00000 -1.00000 -1.00000 -1.00000 -1.00000 -1.00000 -1.00000
 (dLV/dLT)p        1.0000   1.0000   1.0000   1.0000   1.0000   1.0000   1.0000   1.0000
 Cp, KJ/(KG)(K)   15.4992  15.5211  15.5431  15.5651  15.5871  15.6091  15.6312  15.6533
 GAMMAs            1.3626   1.3619   1.3612   1.3605   1.3598   1.3591   1.3585   1.3578
 SON VEL,M/SEC     2661.1   2670.9   2680.7   2690.5   2700.2   2709.9   2719.5   2729.1

 TRANSPORT PROPERTIES (GASES ONLY)
   CONDUCTIVITY IN UNITS OF MILLIWATTS/(CM)(K)

 VISC,MILLIPOISE  0.24153  0.24286  0.24418  0.24551  0.24682  0.24814  0.24945  0.25076

  WITH EQUILIBRIUM REACTIONS

 Cp, KJ/(KG)(K)   15.4992  15.5211  15.5431  15.5651  15.5871  15.6091  15.6312  15.6533
 CONDUCTIVITY      5.3619   5.3980   5.4340   5.4701   5.5062   5.5424   5.5786   5.6148
 PRANDTL NUMBER    0.6982   0.6983   0.6984   0.6986   0.6987   0.6988   0.6990   0.6991

  WITH FROZEN REACTIONS

 Cp, KJ/(KG)(K)   15.4992  15.5211  15.5430  15.5650  15.5870  15.6090  15.6310  15.6531
 CONDUCTIVITY      5.3619   5.3979   5.4340   5.4701   5.5062   5.5423   5.5785   5.6147
 PRANDTL NUMBER    0.6982   0.6983   0.6985   0.6986   0.6987   0.6988   0.6990   0.6991

 MOLE FRACTIONS

 *H2              1.00000  1.00000  1.00000  1.00000  1.00000  1.00000  1.00000  1.00000

  * THERMODYNAMIC PROPERTIES FITTED TO 20000.K

 NOTE. WEIGHT FRACTION OF FUEL IN TOTAL FUELS AND OF OXIDANT IN TOTAL OXIDANTS









               THERMODYNAMIC EQUILIBRIUM PROPERTIES AT ASSIGNED

                           TEMPERATURE AND PRESSURE

 CASE =                

             REACTANT                    WT FRACTION      ENERGY      TEMP
                                          (SEE NOTE)     KJ/KG-MOL      K  
             H2                           1.0000000         0.000      0.000

 O/F=    0.00000  %FUEL=100.000000  R,EQ.RATIO= 0.000000  PHI,EQ.RATIO= 0.000000

 THERMODYNAMIC PROPERTIES

 P, BAR            250.00
 T, K             1340.00
 RHO, KG/CU M    4.5234 0
 H, KJ/KG         15464.6
 U, KJ/KG         9937.80
 G, KJ/KG        -70505.9
 S, KJ/(KG)(K)    64.1571

 M, (1/n)           2.016
 (dLV/dLP)t      -1.00000
 (dLV/dLT)p        1.0000
 Cp, KJ/(KG)(K)   15.6754
 GAMMAs            1.3571
 SON VEL,M/SEC     2738.7

 TRANSPORT PROPERTIES (GASES ONLY)
   CONDUCTIVITY IN UNITS OF MILLIWATTS/(CM)(K)

 VISC,MILLIPOISE  0.25207

  WITH EQUILIBRIUM REACTIONS

 Cp, KJ/(KG)(K)   15.6754
 CONDUCTIVITY      5.6511
 PRANDTL NUMBER    0.6992

  WITH FROZEN REACTIONS

 Cp, KJ/(KG)(K)   15.6752
 CONDUCTIVITY      5.6509
 PRANDTL NUMBER    0.6992

 MOLE FRACTIONS

 *H2              1.00000

  * THERMODYNAMIC PROPERTIES FITTED TO 20000.K

 NOTE. WEIGHT FRACTION OF FUEL IN TOTAL FUELS AND OF OXIDANT IN TOTAL OXIDANTS



  
