
 *******************************************************************************

         NASA-GLENN CHEMICAL EQUILIBRIUM PROGRAM CEA2, MAY 21, 2004
                   BY  BONNIE MCBRIDE AND SANFORD GORDON
      REFS: NASA RP-1311, PART I, 1994 AND NASA RP-1311, PART II, 1996

 *******************************************************************************



  prob tp ions
  p,bar= 0.54,0.6,0.67,0.74,0.825,0.91,1.0,1.1,1.2,1.32,1.48,1.65,1.8,2.0,2.25
  t,k= 5250,5260,5270,5280,5290,5300,5310,5320,5330,5340,5350,5360,5370,5380,5390
  
  reac
  na H2                wt%=100.0000
  
  output short
  output siunits
  output transport
  
 end





               THERMODYNAMIC EQUILIBRIUM PROPERTIES AT ASSIGNED

                           TEMPERATURE AND PRESSURE

 CASE =                

             REACTANT                    WT FRACTION      ENERGY      TEMP
                                          (SEE NOTE)     KJ/KG-MOL      K  
             H2                           1.0000000         0.000      0.000

 O/F=    0.00000  %FUEL=100.000000  R,EQ.RATIO= 0.000000  PHI,EQ.RATIO= 0.000000

 THERMODYNAMIC PROPERTIES

 P, BAR           0.54000  0.54000  0.54000  0.54000  0.54000  0.54000  0.54000  0.54000
 T, K             5250.00  5260.00  5270.00  5280.00  5290.00  5300.00  5310.00  5320.00
 RHO, KG/CU M    1.2563-3 1.2537-3 1.2511-3 1.2486-3 1.2461-3 1.2435-3 1.2410-3 1.2386-3
 H, KJ/KG        314969.1 315243.3 315516.0 315787.2 316057.0 316325.3 316592.3 316857.9
 U, KJ/KG        271985.0 272171.0 272355.6 272538.8 272720.6 272901.2 273080.5 273258.5
 G, KJ/KG       -616692.2-618467.0-620242.4-622018.3-623794.7-625571.6-627349.0-629126.9
 S, KJ/(KG)(K)   177.4593 177.5115 177.5633 177.6147 177.6657 177.7164 177.7667 177.8167

 M, (1/n)           1.016    1.015    1.015    1.015    1.015    1.015    1.015    1.015
 (dLV/dLP)t      -1.00737 -1.00723 -1.00709 -1.00695 -1.00682 -1.00669 -1.00656 -1.00644
 (dLV/dLT)p        1.0786   1.0769   1.0753   1.0737   1.0722   1.0707   1.0692   1.0678
 Cp, KJ/(KG)(K)   27.5002  27.3453  27.1944  27.0474  26.9042  26.7647  26.6288  26.4963
 GAMMAs            1.5128   1.5153   1.5178   1.5202   1.5226   1.5249   1.5273   1.5296
 SON VEL,M/SEC     8063.9   8078.8   8093.7   8108.4   8123.0   8137.5   8152.0   8166.3

 TRANSPORT PROPERTIES (GASES ONLY)
   CONDUCTIVITY IN UNITS OF MILLIWATTS/(CM)(K)

 VISC,MILLIPOISE  0.57325  0.57399  0.57474  0.57549  0.57624  0.57700  0.57776  0.57853

  WITH EQUILIBRIUM REACTIONS

 Cp, KJ/(KG)(K)   27.5002  27.3453  27.1944  27.0474  26.9042  26.7647  26.6288  26.4963
 CONDUCTIVITY     24.8113  24.6831  24.5587  24.4380  24.3209  24.2073  24.0972  23.9903
 PRANDTL NUMBER    0.6354   0.6359   0.6364   0.6369   0.6374   0.6380   0.6385   0.6390

  WITH FROZEN REACTIONS

 Cp, KJ/(KG)(K)   20.6197  20.6199  20.6200  20.6202  20.6203  20.6205  20.6206  20.6208
 CONDUCTIVITY     17.6157  17.6409  17.6662  17.6916  17.7170  17.7426  17.7682  17.7938
 PRANDTL NUMBER    0.6710   0.6709   0.6708   0.6708   0.6707   0.6706   0.6705   0.6704

 MOLE FRACTIONS

 *e-              0.00001  0.00001  0.00001  0.00001  0.00001  0.00001  0.00001  0.00001
 *H               0.99245  0.99260  0.99274  0.99288  0.99302  0.99316  0.99329  0.99342
 *H+              0.00001  0.00001  0.00001  0.00001  0.00001  0.00001  0.00001  0.00001
 *H2              0.00753  0.00738  0.00724  0.00709  0.00696  0.00682  0.00669  0.00656

  * THERMODYNAMIC PROPERTIES FITTED TO 20000.K

 NOTE. WEIGHT FRACTION OF FUEL IN TOTAL FUELS AND OF OXIDANT IN TOTAL OXIDANTS









               THERMODYNAMIC EQUILIBRIUM PROPERTIES AT ASSIGNED

                           TEMPERATURE AND PRESSURE

 CASE =                

             REACTANT                    WT FRACTION      ENERGY      TEMP
                                          (SEE NOTE)     KJ/KG-MOL      K  
             H2                           1.0000000         0.000      0.000

 O/F=    0.00000  %FUEL=100.000000  R,EQ.RATIO= 0.000000  PHI,EQ.RATIO= 0.000000

 THERMODYNAMIC PROPERTIES

 P, BAR           0.54000  0.54000  0.54000  0.54000  0.54000  0.54000  0.54000  0.60000
 T, K             5330.00  5340.00  5350.00  5360.00  5370.00  5380.00  5390.00  5250.00
 RHO, KG/CU M    1.2361-3 1.2336-3 1.2312-3 1.2287-3 1.2263-3 1.2239-3 1.2215-3 1.3970-3
 H, KJ/KG        317122.2 317385.2 317647.0 317907.6 318167.1 318425.3 318682.5 314594.8
 U, KJ/KG        273435.4 273611.1 273785.6 273959.1 274131.4 274302.7 274473.0 271645.8
 G, KJ/KG       -630905.3-632684.3-634463.7-636243.5-638023.9-639804.8-641586.1-612165.2
 S, KJ/(KG)(K)   177.8663 177.9156 177.9646 178.0133 178.0616 178.1097 178.1574 176.5257

 M, (1/n)           1.014    1.014    1.014    1.014    1.014    1.014    1.014    1.016
 (dLV/dLP)t      -1.00632 -1.00620 -1.00608 -1.00597 -1.00586 -1.00575 -1.00564 -1.00815
 (dLV/dLT)p        1.0664   1.0650   1.0637   1.0624   1.0611   1.0599   1.0587   1.0869
 Cp, KJ/(KG)(K)   26.3673  26.2416  26.1192  25.9998  25.8835  25.7702  25.6598  28.2195
 GAMMAs            1.5318   1.5341   1.5363   1.5384   1.5406   1.5427   1.5447   1.5022
 SON VEL,M/SEC     8180.5   8194.7   8208.7   8222.6   8236.5   8250.2   8263.8   8032.4

 TRANSPORT PROPERTIES (GASES ONLY)
   CONDUCTIVITY IN UNITS OF MILLIWATTS/(CM)(K)

 VISC,MILLIPOISE  0.57929  0.58007  0.58084  0.58162  0.58241  0.58319  0.58398  0.57419

  WITH EQUILIBRIUM REACTIONS

 Cp, KJ/(KG)(K)   26.3673  26.2416  26.1192  25.9998  25.8835  25.7702  25.6598  28.2195
 CONDUCTIVITY     23.8868  23.7864  23.6890  23.5947  23.5033  23.4148  23.3290  25.5933
 PRANDTL NUMBER    0.6395   0.6399   0.6404   0.6409   0.6414   0.6419   0.6423   0.6331

  WITH FROZEN REACTIONS

 Cp, KJ/(KG)(K)   20.6209  20.6210  20.6211  20.6213  20.6214  20.6215  20.6216  20.6194
 CONDUCTIVITY     17.8196  17.8454  17.8713  17.8972  17.9232  17.9493  17.9755  17.6322
 PRANDTL NUMBER    0.6704   0.6703   0.6702   0.6701   0.6701   0.6700   0.6699   0.6715

 MOLE FRACTIONS

 *e-              0.00001  0.00001  0.00001  0.00001  0.00001  0.00002  0.00002  0.00001
 *H               0.99354  0.99366  0.99378  0.99390  0.99402  0.99413  0.99424  0.99163
 *H+              0.00001  0.00001  0.00001  0.00001  0.00001  0.00002  0.00002  0.00001
 *H2              0.00643  0.00631  0.00619  0.00607  0.00595  0.00584  0.00573  0.00835

  * THERMODYNAMIC PROPERTIES FITTED TO 20000.K

 NOTE. WEIGHT FRACTION OF FUEL IN TOTAL FUELS AND OF OXIDANT IN TOTAL OXIDANTS









               THERMODYNAMIC EQUILIBRIUM PROPERTIES AT ASSIGNED

                           TEMPERATURE AND PRESSURE

 CASE =                

             REACTANT                    WT FRACTION      ENERGY      TEMP
                                          (SEE NOTE)     KJ/KG-MOL      K  
             H2                           1.0000000         0.000      0.000

 O/F=    0.00000  %FUEL=100.000000  R,EQ.RATIO= 0.000000  PHI,EQ.RATIO= 0.000000

 THERMODYNAMIC PROPERTIES

 P, BAR           0.60000  0.60000  0.60000  0.60000  0.60000  0.60000  0.60000  0.60000
 T, K             5260.00  5270.00  5280.00  5290.00  5300.00  5310.00  5320.00  5330.00
 RHO, KG/CU M    1.3941-3 1.3913-3 1.3884-3 1.3856-3 1.3827-3 1.3799-3 1.3772-3 1.3744-3
 H, KJ/KG        314876.1 315155.8 315433.8 315710.2 315985.1 316258.4 316530.2 316800.7
 U, KJ/KG        271838.3 272029.3 272218.7 272406.6 272593.1 272778.3 272962.0 273144.4
 G, KJ/KG       -613930.7-615696.7-617463.3-619230.4-620998.1-622766.2-624534.9-626304.1
 S, KJ/(KG)(K)   176.5792 176.6324 176.6851 176.7374 176.7893 176.8408 176.8919 176.9427

 M, (1/n)           1.016    1.016    1.016    1.016    1.016    1.015    1.015    1.015
 (dLV/dLP)t      -1.00800 -1.00784 -1.00769 -1.00755 -1.00740 -1.00726 -1.00713 -1.00699
 (dLV/dLT)p        1.0851   1.0833   1.0816   1.0799   1.0782   1.0766   1.0750   1.0735
 Cp, KJ/(KG)(K)   28.0488  27.8824  27.7203  27.5623  27.4084  27.2584  27.1122  26.9697
 GAMMAs            1.5048   1.5074   1.5099   1.5124   1.5148   1.5173   1.5197   1.5220
 SON VEL,M/SEC     8047.6   8062.7   8077.8   8092.7   8107.5   8122.2   8136.9   8151.4

 TRANSPORT PROPERTIES (GASES ONLY)
   CONDUCTIVITY IN UNITS OF MILLIWATTS/(CM)(K)

 VISC,MILLIPOISE  0.57492  0.57565  0.57639  0.57712  0.57787  0.57862  0.57937  0.58012

  WITH EQUILIBRIUM REACTIONS

 Cp, KJ/(KG)(K)   28.0488  27.8824  27.7203  27.5623  27.4084  27.2584  27.1122  26.9697
 CONDUCTIVITY     25.4491  25.3090  25.1730  25.0409  24.9127  24.7883  24.6675  24.5502
 PRANDTL NUMBER    0.6336   0.6342   0.6347   0.6352   0.6358   0.6363   0.6368   0.6373

  WITH FROZEN REACTIONS

 Cp, KJ/(KG)(K)   20.6195  20.6197  20.6199  20.6201  20.6202  20.6204  20.6205  20.6207
 CONDUCTIVITY     17.6572  17.6822  17.7073  17.7325  17.7578  17.7832  17.8086  17.8341
 PRANDTL NUMBER    0.6714   0.6713   0.6712   0.6711   0.6710   0.6709   0.6708   0.6708

 MOLE FRACTIONS

 *e-              0.00001  0.00001  0.00001  0.00001  0.00001  0.00001  0.00001  0.00001
 *H               0.99179  0.99195  0.99211  0.99226  0.99241  0.99256  0.99270  0.99284
 *H+              0.00001  0.00001  0.00001  0.00001  0.00001  0.00001  0.00001  0.00001
 *H2              0.00819  0.00803  0.00787  0.00772  0.00757  0.00742  0.00728  0.00714

  * THERMODYNAMIC PROPERTIES FITTED TO 20000.K

 NOTE. WEIGHT FRACTION OF FUEL IN TOTAL FUELS AND OF OXIDANT IN TOTAL OXIDANTS









               THERMODYNAMIC EQUILIBRIUM PROPERTIES AT ASSIGNED

                           TEMPERATURE AND PRESSURE

 CASE =                

             REACTANT                    WT FRACTION      ENERGY      TEMP
                                          (SEE NOTE)     KJ/KG-MOL      K  
             H2                           1.0000000         0.000      0.000

 O/F=    0.00000  %FUEL=100.000000  R,EQ.RATIO= 0.000000  PHI,EQ.RATIO= 0.000000

 THERMODYNAMIC PROPERTIES

 P, BAR           0.60000  0.60000  0.60000  0.60000  0.60000  0.60000  0.67000  0.67000
 T, K             5340.00  5350.00  5360.00  5370.00  5380.00  5390.00  5250.00  5260.00
 RHO, KG/CU M    1.3716-3 1.3689-3 1.3661-3 1.3634-3 1.3607-3 1.3580-3 1.5615-3 1.5582-3
 H, KJ/KG        317069.7 317337.3 317603.6 317868.6 318132.3 318394.8 314160.6 314450.2
 U, KJ/KG        273325.6 273505.4 273684.1 273861.5 274037.8 274212.9 271252.4 271452.4
 G, KJ/KG       -628073.7-629843.9-631614.6-633385.8-635157.5-636929.6-607428.0-609183.7
 S, KJ/(KG)(K)   176.9931 177.0432 177.0929 177.1423 177.1914 177.2401 175.5407 175.5958

 M, (1/n)           1.015    1.015    1.015    1.015    1.014    1.014    1.017    1.017
 (dLV/dLP)t      -1.00686 -1.00673 -1.00661 -1.00649 -1.00637 -1.00625 -1.00906 -1.00889
 (dLV/dLT)p        1.0720   1.0705   1.0691   1.0677   1.0663   1.0650   1.0966   1.0945
 Cp, KJ/(KG)(K)   26.8309  26.6956  26.5638  26.4352  26.3100  26.1879  29.0501  28.8613
 GAMMAs            1.5244   1.5266   1.5289   1.5311   1.5333   1.5355   1.4908   1.4935
 SON VEL,M/SEC     8165.9   8180.2   8194.5   8208.6   8222.7   8236.6   7998.1   8013.6

 TRANSPORT PROPERTIES (GASES ONLY)
   CONDUCTIVITY IN UNITS OF MILLIWATTS/(CM)(K)

 VISC,MILLIPOISE  0.58088  0.58164  0.58241  0.58318  0.58395  0.58473  0.57529  0.57600

  WITH EQUILIBRIUM REACTIONS

 Cp, KJ/(KG)(K)   26.8309  26.6956  26.5638  26.4352  26.3100  26.1879  29.0501  28.8613
 CONDUCTIVITY     24.4364  24.3260  24.2189  24.1151  24.0143  23.9166  26.4977  26.3351
 PRANDTL NUMBER    0.6378   0.6383   0.6388   0.6393   0.6398   0.6403   0.6307   0.6313

  WITH FROZEN REACTIONS

 Cp, KJ/(KG)(K)   20.6208  20.6209  20.6211  20.6212  20.6213  20.6215  20.6190  20.6192
 CONDUCTIVITY     17.8597  17.8853  17.9110  17.9368  17.9627  17.9886  17.6515  17.6761
 PRANDTL NUMBER    0.6707   0.6706   0.6705   0.6705   0.6704   0.6703   0.6720   0.6719

 MOLE FRACTIONS

 *e-              0.00001  0.00001  0.00001  0.00001  0.00001  0.00002  0.00001  0.00001
 *H               0.99297  0.99311  0.99324  0.99336  0.99349  0.99361  0.99067  0.99085
 *H+              0.00001  0.00001  0.00001  0.00001  0.00001  0.00002  0.00001  0.00001
 *H2              0.00700  0.00687  0.00674  0.00661  0.00648  0.00636  0.00931  0.00913

  * THERMODYNAMIC PROPERTIES FITTED TO 20000.K

 NOTE. WEIGHT FRACTION OF FUEL IN TOTAL FUELS AND OF OXIDANT IN TOTAL OXIDANTS









               THERMODYNAMIC EQUILIBRIUM PROPERTIES AT ASSIGNED

                           TEMPERATURE AND PRESSURE

 CASE =                

             REACTANT                    WT FRACTION      ENERGY      TEMP
                                          (SEE NOTE)     KJ/KG-MOL      K  
             H2                           1.0000000         0.000      0.000

 O/F=    0.00000  %FUEL=100.000000  R,EQ.RATIO= 0.000000  PHI,EQ.RATIO= 0.000000

 THERMODYNAMIC PROPERTIES

 P, BAR           0.67000  0.67000  0.67000  0.67000  0.67000  0.67000  0.67000  0.67000
 T, K             5270.00  5280.00  5290.00  5300.00  5310.00  5320.00  5330.00  5340.00
 RHO, KG/CU M    1.5550-3 1.5518-3 1.5486-3 1.5454-3 1.5422-3 1.5391-3 1.5360-3 1.5329-3
 H, KJ/KG        314737.9 315023.7 315307.8 315590.2 315870.9 316149.9 316427.4 316703.3
 U, KJ/KG        271650.7 271847.3 272042.3 272235.7 272427.5 272617.8 272806.7 272994.1
 G, KJ/KG       -610939.9-612696.7-614454.0-616211.9-617970.3-619729.2-621488.6-623248.6
 S, KJ/(KG)(K)   175.6504 175.7046 175.7584 175.8117 175.8646 175.9171 175.9692 176.0209

 M, (1/n)           1.017    1.017    1.017    1.016    1.016    1.016    1.016    1.016
 (dLV/dLP)t      -1.00872 -1.00855 -1.00839 -1.00823 -1.00808 -1.00792 -1.00778 -1.00763
 (dLV/dLT)p        1.0926   1.0906   1.0888   1.0869   1.0851   1.0834   1.0817   1.0800
 Cp, KJ/(KG)(K)   28.6772  28.4978  28.3229  28.1525  27.9863  27.8244  27.6666  27.5127
 GAMMAs            1.4961   1.4987   1.5013   1.5039   1.5064   1.5089   1.5113   1.5138
 SON VEL,M/SEC     8029.0   8044.3   8059.5   8074.6   8089.7   8104.6   8119.4   8134.2

 TRANSPORT PROPERTIES (GASES ONLY)
   CONDUCTIVITY IN UNITS OF MILLIWATTS/(CM)(K)

 VISC,MILLIPOISE  0.57671  0.57743  0.57815  0.57888  0.57961  0.58034  0.58108  0.58182

  WITH EQUILIBRIUM REACTIONS

 Cp, KJ/(KG)(K)   28.6772  28.4978  28.3229  28.1525  27.9863  27.8244  27.6666  27.5127
 CONDUCTIVITY     26.1770  26.0234  25.8742  25.7292  25.5883  25.4514  25.3185  25.1893
 PRANDTL NUMBER    0.6318   0.6323   0.6329   0.6334   0.6339   0.6344   0.6350   0.6355

  WITH FROZEN REACTIONS

 Cp, KJ/(KG)(K)   20.6194  20.6196  20.6197  20.6199  20.6201  20.6203  20.6204  20.6206
 CONDUCTIVITY     17.7008  17.7256  17.7505  17.7755  17.8006  17.8257  17.8509  17.8762
 PRANDTL NUMBER    0.6718   0.6717   0.6716   0.6715   0.6714   0.6713   0.6712   0.6711

 MOLE FRACTIONS

 *e-              0.00001  0.00001  0.00001  0.00001  0.00001  0.00001  0.00001  0.00001
 *H               0.99103  0.99121  0.99138  0.99154  0.99171  0.99186  0.99202  0.99217
 *H+              0.00001  0.00001  0.00001  0.00001  0.00001  0.00001  0.00001  0.00001
 *H2              0.00895  0.00877  0.00860  0.00844  0.00827  0.00811  0.00796  0.00780

  * THERMODYNAMIC PROPERTIES FITTED TO 20000.K

 NOTE. WEIGHT FRACTION OF FUEL IN TOTAL FUELS AND OF OXIDANT IN TOTAL OXIDANTS









               THERMODYNAMIC EQUILIBRIUM PROPERTIES AT ASSIGNED

                           TEMPERATURE AND PRESSURE

 CASE =                

             REACTANT                    WT FRACTION      ENERGY      TEMP
                                          (SEE NOTE)     KJ/KG-MOL      K  
             H2                           1.0000000         0.000      0.000

 O/F=    0.00000  %FUEL=100.000000  R,EQ.RATIO= 0.000000  PHI,EQ.RATIO= 0.000000

 THERMODYNAMIC PROPERTIES

 P, BAR           0.67000  0.67000  0.67000  0.67000  0.67000  0.74000  0.74000  0.74000
 T, K             5350.00  5360.00  5370.00  5380.00  5390.00  5250.00  5260.00  5270.00
 RHO, KG/CU M    1.5298-3 1.5267-3 1.5236-3 1.5206-3 1.5176-3 1.7262-3 1.7226-3 1.7190-3
 H, KJ/KG        316977.7 317250.6 317522.0 317792.0 318060.7 313729.0 314026.7 314322.3
 U, KJ/KG        273180.2 273364.8 273548.2 273730.2 273911.0 270861.3 271068.7 271274.3
 G, KJ/KG       -625009.0-626770.0-628531.5-630293.5-632056.0-603166.1-604912.9-606660.2
 S, KJ/(KG)(K)   176.0723 176.1232 176.1738 176.2241 176.2740 174.6467 174.7033 174.7595

 M, (1/n)           1.016    1.015    1.015    1.015    1.015    1.018    1.018    1.018
 (dLV/dLP)t      -1.00749 -1.00735 -1.00721 -1.00708 -1.00695 -1.00996 -1.00977 -1.00958
 (dLV/dLT)p        1.0784   1.0768   1.0752   1.0737   1.0722   1.1061   1.1039   1.1018
 Cp, KJ/(KG)(K)   27.3627  27.2165  27.0739  26.9350  26.7995  29.8715  29.6649  29.4635
 GAMMAs            1.5162   1.5185   1.5209   1.5232   1.5254   1.4804   1.4831   1.4858
 SON VEL,M/SEC     8148.9   8163.4   8177.9   8192.3   8206.6   7966.1   7981.9   7997.5

 TRANSPORT PROPERTIES (GASES ONLY)
   CONDUCTIVITY IN UNITS OF MILLIWATTS/(CM)(K)

 VISC,MILLIPOISE  0.58257  0.58332  0.58408  0.58483  0.58560  0.57638  0.57707  0.57776

  WITH EQUILIBRIUM REACTIONS

 Cp, KJ/(KG)(K)   27.3627  27.2165  27.0739  26.9350  26.7995  29.8715  29.6649  29.4635
 CONDUCTIVITY     25.0639  24.9421  24.8238  24.7090  24.5975  27.3935  27.2129  27.0372
 PRANDTL NUMBER    0.6360   0.6365   0.6370   0.6375   0.6380   0.6285   0.6291   0.6296

  WITH FROZEN REACTIONS

 Cp, KJ/(KG)(K)   20.6207  20.6209  20.6210  20.6211  20.6213  20.6186  20.6188  20.6190
 CONDUCTIVITY     17.9016  17.9271  17.9526  17.9782  18.0039  17.6706  17.6949  17.7193
 PRANDTL NUMBER    0.6711   0.6710   0.6709   0.6708   0.6707   0.6725   0.6724   0.6723

 MOLE FRACTIONS

 *e-              0.00001  0.00001  0.00001  0.00001  0.00001  0.00001  0.00001  0.00001
 *H               0.99232  0.99246  0.99261  0.99274  0.99288  0.98972  0.98992  0.99012
 *H+              0.00001  0.00001  0.00001  0.00001  0.00001  0.00001  0.00001  0.00001
 *H2              0.00766  0.00751  0.00737  0.00723  0.00709  0.01026  0.01006  0.00986

  * THERMODYNAMIC PROPERTIES FITTED TO 20000.K

 NOTE. WEIGHT FRACTION OF FUEL IN TOTAL FUELS AND OF OXIDANT IN TOTAL OXIDANTS









               THERMODYNAMIC EQUILIBRIUM PROPERTIES AT ASSIGNED

                           TEMPERATURE AND PRESSURE

 CASE =                

             REACTANT                    WT FRACTION      ENERGY      TEMP
                                          (SEE NOTE)     KJ/KG-MOL      K  
             H2                           1.0000000         0.000      0.000

 O/F=    0.00000  %FUEL=100.000000  R,EQ.RATIO= 0.000000  PHI,EQ.RATIO= 0.000000

 THERMODYNAMIC PROPERTIES

 P, BAR           0.74000  0.74000  0.74000  0.74000  0.74000  0.74000  0.74000  0.74000
 T, K             5280.00  5290.00  5300.00  5310.00  5320.00  5330.00  5340.00  5350.00
 RHO, KG/CU M    1.7154-3 1.7119-3 1.7083-3 1.7048-3 1.7013-3 1.6978-3 1.6944-3 1.6909-3
 H, KJ/KG        314616.0 314907.7 315197.5 315485.5 315771.7 316056.1 316338.8 316619.9
 U, KJ/KG        271478.0 271679.9 271880.1 272078.6 272275.5 272470.7 272664.4 272856.6
 G, KJ/KG       -608408.1-610156.5-611905.5-613655.0-615405.0-617155.6-618906.8-620658.4
 S, KJ/(KG)(K)   174.8152 174.8704 174.9251 174.9794 175.0332 175.0866 175.1396 175.1922

 M, (1/n)           1.018    1.017    1.017    1.017    1.017    1.017    1.017    1.016
 (dLV/dLP)t      -1.00940 -1.00922 -1.00905 -1.00888 -1.00871 -1.00855 -1.00839 -1.00824
 (dLV/dLT)p        1.0996   1.0976   1.0956   1.0936   1.0917   1.0898   1.0880   1.0862
 Cp, KJ/(KG)(K)   29.2672  29.0758  28.8892  28.7072  28.5299  28.3569  28.1883  28.0239
 GAMMAs            1.4884   1.4911   1.4937   1.4963   1.4989   1.5014   1.5039   1.5064
 SON VEL,M/SEC     8013.0   8028.5   8043.8   8059.1   8074.3   8089.4   8104.4   8119.4

 TRANSPORT PROPERTIES (GASES ONLY)
   CONDUCTIVITY IN UNITS OF MILLIWATTS/(CM)(K)

 VISC,MILLIPOISE  0.57846  0.57917  0.57988  0.58059  0.58131  0.58203  0.58276  0.58349

  WITH EQUILIBRIUM REACTIONS

 Cp, KJ/(KG)(K)   29.2672  29.0758  28.8892  28.7072  28.5299  28.3569  28.1883  28.0239
 CONDUCTIVITY     26.8663  26.7002  26.5387  26.3816  26.2289  26.0805  25.9363  25.7960
 PRANDTL NUMBER    0.6302   0.6307   0.6312   0.6318   0.6323   0.6328   0.6334   0.6339

  WITH FROZEN REACTIONS

 Cp, KJ/(KG)(K)   20.6192  20.6194  20.6196  20.6198  20.6200  20.6202  20.6203  20.6205
 CONDUCTIVITY     17.7438  17.7684  17.7931  17.8179  17.8427  17.8677  17.8927  17.9178
 PRANDTL NUMBER    0.6722   0.6721   0.6720   0.6719   0.6718   0.6717   0.6716   0.6715

 MOLE FRACTIONS

 *e-              0.00001  0.00001  0.00001  0.00001  0.00001  0.00001  0.00001  0.00001
 *H               0.99031  0.99050  0.99068  0.99086  0.99103  0.99120  0.99137  0.99153
 *H+              0.00001  0.00001  0.00001  0.00001  0.00001  0.00001  0.00001  0.00001
 *H2              0.00967  0.00948  0.00930  0.00912  0.00894  0.00877  0.00861  0.00844

  * THERMODYNAMIC PROPERTIES FITTED TO 20000.K

 NOTE. WEIGHT FRACTION OF FUEL IN TOTAL FUELS AND OF OXIDANT IN TOTAL OXIDANTS









               THERMODYNAMIC EQUILIBRIUM PROPERTIES AT ASSIGNED

                           TEMPERATURE AND PRESSURE

 CASE =                

             REACTANT                    WT FRACTION      ENERGY      TEMP
                                          (SEE NOTE)     KJ/KG-MOL      K  
             H2                           1.0000000         0.000      0.000

 O/F=    0.00000  %FUEL=100.000000  R,EQ.RATIO= 0.000000  PHI,EQ.RATIO= 0.000000

 THERMODYNAMIC PROPERTIES

 P, BAR           0.74000  0.74000  0.74000  0.74000  0.82500  0.82500  0.82500  0.82500
 T, K             5360.00  5370.00  5380.00  5390.00  5250.00  5260.00  5270.00  5280.00
 RHO, KG/CU M    1.6875-3 1.6841-3 1.6807-3 1.6773-3 1.9267-3 1.9226-3 1.9186-3 1.9145-3
 H, KJ/KG        316899.3 317177.2 317453.5 317728.3 313208.3 313515.7 313820.9 314123.9
 U, KJ/KG        273047.2 273236.4 273424.2 273610.6 270389.4 270605.8 270820.1 271032.3
 G, KJ/KG       -622410.6-624163.3-625916.5-627670.3-598507.6-600244.5-601981.9-603720.0
 S, KJ/(KG)(K)   175.2444 175.2962 175.3476 175.3986 173.6602 173.7187 173.7766 173.8341

 M, (1/n)           1.016    1.016    1.016    1.016    1.019    1.019    1.019    1.019
 (dLV/dLP)t      -1.00808 -1.00794 -1.00779 -1.00765 -1.01104 -1.01083 -1.01062 -1.01042
 (dLV/dLT)p        1.0845   1.0828   1.0811   1.0795   1.1176   1.1152   1.1128   1.1105
 Cp, KJ/(KG)(K)   27.8636  27.7073  27.5548  27.4062  30.8566  30.6290  30.4071  30.1906
 GAMMAs            1.5088   1.5112   1.5136   1.5160   1.4687   1.4714   1.4742   1.4769
 SON VEL,M/SEC     8134.2   8148.9   8163.6   8178.2   7930.1   7946.0   7961.9   7977.7

 TRANSPORT PROPERTIES (GASES ONLY)
   CONDUCTIVITY IN UNITS OF MILLIWATTS/(CM)(K)

 VISC,MILLIPOISE  0.58423  0.58497  0.58571  0.58646  0.57769  0.57836  0.57903  0.57971

  WITH EQUILIBRIUM REACTIONS

 Cp, KJ/(KG)(K)   27.8636  27.7073  27.5548  27.4062  30.8566  30.6290  30.4071  30.1906
 CONDUCTIVITY     25.6598  25.5273  25.3987  25.2737  28.4700  28.2679  28.0712  27.8798
 PRANDTL NUMBER    0.6344   0.6349   0.6354   0.6359   0.6261   0.6267   0.6272   0.6278

  WITH FROZEN REACTIONS

 Cp, KJ/(KG)(K)   20.6207  20.6208  20.6210  20.6211  20.6181  20.6183  20.6186  20.6188
 CONDUCTIVITY     17.9430  17.9683  17.9937  18.0191  17.6936  17.7176  17.7416  17.7658
 PRANDTL NUMBER    0.6714   0.6713   0.6712   0.6711   0.6732   0.6730   0.6729   0.6728

 MOLE FRACTIONS

 *e-              0.00001  0.00001  0.00001  0.00001  0.00001  0.00001  0.00001  0.00001
 *H               0.99169  0.99185  0.99200  0.99215  0.98857  0.98879  0.98901  0.98922
 *H+              0.00001  0.00001  0.00001  0.00001  0.00001  0.00001  0.00001  0.00001
 *H2              0.00828  0.00812  0.00797  0.00782  0.01142  0.01119  0.01097  0.01076

  * THERMODYNAMIC PROPERTIES FITTED TO 20000.K

 NOTE. WEIGHT FRACTION OF FUEL IN TOTAL FUELS AND OF OXIDANT IN TOTAL OXIDANTS









               THERMODYNAMIC EQUILIBRIUM PROPERTIES AT ASSIGNED

                           TEMPERATURE AND PRESSURE

 CASE =                

             REACTANT                    WT FRACTION      ENERGY      TEMP
                                          (SEE NOTE)     KJ/KG-MOL      K  
             H2                           1.0000000         0.000      0.000

 O/F=    0.00000  %FUEL=100.000000  R,EQ.RATIO= 0.000000  PHI,EQ.RATIO= 0.000000

 THERMODYNAMIC PROPERTIES

 P, BAR           0.82500  0.82500  0.82500  0.82500  0.82500  0.82500  0.82500  0.82500
 T, K             5290.00  5300.00  5310.00  5320.00  5330.00  5340.00  5350.00  5360.00
 RHO, KG/CU M    1.9105-3 1.9065-3 1.9026-3 1.8986-3 1.8947-3 1.8908-3 1.8869-3 1.8831-3
 H, KJ/KG        314424.7 314723.5 315020.2 315315.0 315607.8 315898.7 316187.8 316475.1
 U, KJ/KG        271242.6 271451.0 271657.5 271862.2 272065.1 272266.3 272465.8 272663.6
 G, KJ/KG       -605458.6-607197.8-608937.6-610677.9-612418.8-614160.2-615902.1-617644.6
 S, KJ/(KG)(K)   173.8910 173.9474 174.0034 174.0588 174.1138 174.1683 174.2224 174.2761

 M, (1/n)           1.019    1.018    1.018    1.018    1.018    1.018    1.017    1.017
 (dLV/dLP)t      -1.01023 -1.01004 -1.00985 -1.00967 -1.00949 -1.00931 -1.00914 -1.00897
 (dLV/dLT)p        1.1082   1.1060   1.1038   1.1017   1.0996   1.0976   1.0956   1.0937
 Cp, KJ/(KG)(K)   29.9796  29.7738  29.5731  29.3774  29.1865  29.0004  28.8188  28.6417
 GAMMAs            1.4796   1.4823   1.4850   1.4876   1.4902   1.4928   1.4954   1.4979
 SON VEL,M/SEC     7993.4   8009.0   8024.5   8040.0   8055.3   8070.6   8085.8   8100.9

 TRANSPORT PROPERTIES (GASES ONLY)
   CONDUCTIVITY IN UNITS OF MILLIWATTS/(CM)(K)

 VISC,MILLIPOISE  0.58039  0.58108  0.58178  0.58247  0.58318  0.58389  0.58460  0.58532

  WITH EQUILIBRIUM REACTIONS

 Cp, KJ/(KG)(K)   29.9796  29.7738  29.5731  29.3774  29.1865  29.0004  28.8188  28.6417
 CONDUCTIVITY     27.6935  27.5123  27.3360  27.1645  26.9976  26.8353  26.6775  26.5239
 PRANDTL NUMBER    0.6283   0.6288   0.6294   0.6299   0.6305   0.6310   0.6315   0.6321

  WITH FROZEN REACTIONS

 Cp, KJ/(KG)(K)   20.6190  20.6193  20.6195  20.6197  20.6199  20.6200  20.6202  20.6204
 CONDUCTIVITY     17.7900  17.8143  17.8388  17.8633  17.8879  17.9126  17.9374  17.9623
 PRANDTL NUMBER    0.6727   0.6726   0.6725   0.6724   0.6722   0.6721   0.6720   0.6719

 MOLE FRACTIONS

 *e-              0.00001  0.00001  0.00001  0.00001  0.00001  0.00001  0.00001  0.00001
 *H               0.98943  0.98963  0.98983  0.99003  0.99022  0.99040  0.99058  0.99076
 *H+              0.00001  0.00001  0.00001  0.00001  0.00001  0.00001  0.00001  0.00001
 *H2              0.01055  0.01035  0.01015  0.00995  0.00976  0.00958  0.00939  0.00922

  * THERMODYNAMIC PROPERTIES FITTED TO 20000.K

 NOTE. WEIGHT FRACTION OF FUEL IN TOTAL FUELS AND OF OXIDANT IN TOTAL OXIDANTS









               THERMODYNAMIC EQUILIBRIUM PROPERTIES AT ASSIGNED

                           TEMPERATURE AND PRESSURE

 CASE =                

             REACTANT                    WT FRACTION      ENERGY      TEMP
                                          (SEE NOTE)     KJ/KG-MOL      K  
             H2                           1.0000000         0.000      0.000

 O/F=    0.00000  %FUEL=100.000000  R,EQ.RATIO= 0.000000  PHI,EQ.RATIO= 0.000000

 THERMODYNAMIC PROPERTIES

 P, BAR           0.82500  0.82500  0.82500  0.91000  0.91000  0.91000  0.91000  0.91000
 T, K             5370.00  5380.00  5390.00  5250.00  5260.00  5270.00  5280.00  5290.00
 RHO, KG/CU M    1.8792-3 1.8754-3 1.8716-3 2.1276-3 2.1231-3 2.1185-3 2.1140-3 2.1096-3
 H, KJ/KG        316760.7 317044.5 317326.7 312691.3 313008.3 313322.9 313635.1 313945.0
 U, KJ/KG        272859.9 273054.5 273247.6 269920.9 270146.1 270369.0 270589.7 270808.2
 G, KJ/KG       -619387.6-621131.2-622875.3-594311.0-596039.0-597767.5-599496.6-601226.3
 S, KJ/(KG)(K)   174.3293 174.3821 174.4345 172.7624 172.8227 172.8824 172.9416 173.0002

 M, (1/n)           1.017    1.017    1.017    1.021    1.020    1.020    1.020    1.020
 (dLV/dLP)t      -1.00881 -1.00864 -1.00849 -1.01210 -1.01188 -1.01165 -1.01143 -1.01122
 (dLV/dLT)p        1.0918   1.0900   1.0882   1.1290   1.1263   1.1237   1.1212   1.1187
 Cp, KJ/(KG)(K)   28.4690  28.3005  28.1362  31.8282  31.5802  31.3383  31.1023  30.8721
 GAMMAs            1.5004   1.5029   1.5053   1.4580   1.4608   1.4636   1.4664   1.4691
 SON VEL,M/SEC     8115.9   8130.9   8145.7   7896.8   7912.9   7928.9   7944.9   7960.8

 TRANSPORT PROPERTIES (GASES ONLY)
   CONDUCTIVITY IN UNITS OF MILLIWATTS/(CM)(K)

 VISC,MILLIPOISE  0.58604  0.58677  0.58750  0.57899  0.57964  0.58029  0.58095  0.58161

  WITH EQUILIBRIUM REACTIONS

 Cp, KJ/(KG)(K)   28.4690  28.3005  28.1362  31.8282  31.5802  31.3383  31.1023  30.8721
 CONDUCTIVITY     26.3746  26.2294  26.0882  29.5342  29.3111  29.0939  28.8823  28.6764
 PRANDTL NUMBER    0.6326   0.6331   0.6336   0.6240   0.6245   0.6251   0.6256   0.6261

  WITH FROZEN REACTIONS

 Cp, KJ/(KG)(K)   20.6206  20.6207  20.6209  20.6176  20.6179  20.6182  20.6184  20.6187
 CONDUCTIVITY     17.9873  18.0124  18.0375  17.7165  17.7401  17.7638  17.7876  17.8115
 PRANDTL NUMBER    0.6718   0.6717   0.6716   0.6738   0.6737   0.6735   0.6734   0.6733

 MOLE FRACTIONS

 *e-              0.00001  0.00001  0.00001  0.00001  0.00001  0.00001  0.00001  0.00001
 *H               0.99093  0.99110  0.99127  0.98742  0.98767  0.98791  0.98814  0.98837
 *H+              0.00001  0.00001  0.00001  0.00001  0.00001  0.00001  0.00001  0.00001
 *H2              0.00904  0.00887  0.00870  0.01256  0.01232  0.01208  0.01184  0.01161

  * THERMODYNAMIC PROPERTIES FITTED TO 20000.K

 NOTE. WEIGHT FRACTION OF FUEL IN TOTAL FUELS AND OF OXIDANT IN TOTAL OXIDANTS









               THERMODYNAMIC EQUILIBRIUM PROPERTIES AT ASSIGNED

                           TEMPERATURE AND PRESSURE

 CASE =                

             REACTANT                    WT FRACTION      ENERGY      TEMP
                                          (SEE NOTE)     KJ/KG-MOL      K  
             H2                           1.0000000         0.000      0.000

 O/F=    0.00000  %FUEL=100.000000  R,EQ.RATIO= 0.000000  PHI,EQ.RATIO= 0.000000

 THERMODYNAMIC PROPERTIES

 P, BAR           0.91000  0.91000  0.91000  0.91000  0.91000  0.91000  0.91000  0.91000
 T, K             5300.00  5310.00  5320.00  5330.00  5340.00  5350.00  5360.00  5370.00
 RHO, KG/CU M    2.1051-3 2.1007-3 2.0963-3 2.0919-3 2.0876-3 2.0833-3 2.0790-3 2.0747-3
 H, KJ/KG        314252.6 314558.0 314861.2 315162.3 315461.3 315758.4 316053.4 316346.6
 U, KJ/KG        271024.7 271239.1 271451.6 271662.0 271870.6 272077.4 272282.3 272485.5
 G, KJ/KG       -602956.6-604687.5-606418.9-608151.0-609883.5-611616.7-613350.3-615084.6
 S, KJ/(KG)(K)   173.0583 173.1159 173.1730 173.2295 173.2856 173.3411 173.3962 173.4509

 M, (1/n)           1.019    1.019    1.019    1.019    1.019    1.018    1.018    1.018
 (dLV/dLP)t      -1.01101 -1.01081 -1.01061 -1.01041 -1.01022 -1.01003 -1.00985 -1.00967
 (dLV/dLT)p        1.1163   1.1139   1.1116   1.1093   1.1071   1.1049   1.1028   1.1008
 Cp, KJ/(KG)(K)   30.6476  30.4286  30.2150  30.0066  29.8033  29.6049  29.4115  29.2227
 GAMMAs            1.4719   1.4746   1.4773   1.4799   1.4826   1.4852   1.4878   1.4903
 SON VEL,M/SEC     7976.6   7992.3   8008.0   8023.5   8039.0   8054.4   8069.8   8085.0

 TRANSPORT PROPERTIES (GASES ONLY)
   CONDUCTIVITY IN UNITS OF MILLIWATTS/(CM)(K)

 VISC,MILLIPOISE  0.58228  0.58295  0.58363  0.58432  0.58501  0.58570  0.58640  0.58711

  WITH EQUILIBRIUM REACTIONS

 Cp, KJ/(KG)(K)   30.6476  30.4286  30.2150  30.0066  29.8033  29.6049  29.4115  29.2227
 CONDUCTIVITY     28.4759  28.2808  28.0908  27.9058  27.7258  27.5506  27.3801  27.2142
 PRANDTL NUMBER    0.6267   0.6272   0.6278   0.6283   0.6288   0.6294   0.6299   0.6304

  WITH FROZEN REACTIONS

 Cp, KJ/(KG)(K)   20.6189  20.6191  20.6193  20.6196  20.6198  20.6200  20.6202  20.6203
 CONDUCTIVITY     17.8355  17.8596  17.8838  17.9081  17.9325  17.9569  17.9815  18.0062
 PRANDTL NUMBER    0.6731   0.6730   0.6729   0.6728   0.6727   0.6726   0.6725   0.6723

 MOLE FRACTIONS

 *e-              0.00001  0.00001  0.00001  0.00001  0.00001  0.00001  0.00001  0.00001
 *H               0.98859  0.98881  0.98902  0.98923  0.98944  0.98964  0.98983  0.99002
 *H+              0.00001  0.00001  0.00001  0.00001  0.00001  0.00001  0.00001  0.00001
 *H2              0.01139  0.01117  0.01096  0.01075  0.01054  0.01034  0.01015  0.00995

  * THERMODYNAMIC PROPERTIES FITTED TO 20000.K

 NOTE. WEIGHT FRACTION OF FUEL IN TOTAL FUELS AND OF OXIDANT IN TOTAL OXIDANTS









               THERMODYNAMIC EQUILIBRIUM PROPERTIES AT ASSIGNED

                           TEMPERATURE AND PRESSURE

 CASE =                

             REACTANT                    WT FRACTION      ENERGY      TEMP
                                          (SEE NOTE)     KJ/KG-MOL      K  
             H2                           1.0000000         0.000      0.000

 O/F=    0.00000  %FUEL=100.000000  R,EQ.RATIO= 0.000000  PHI,EQ.RATIO= 0.000000

 THERMODYNAMIC PROPERTIES

 P, BAR           0.91000  0.91000   1.0000   1.0000   1.0000   1.0000   1.0000   1.0000
 T, K             5380.00  5390.00  5250.00  5260.00  5270.00  5280.00  5290.00  5300.00
 RHO, KG/CU M    2.0705-3 2.0663-3 2.3409-3 2.3358-3 2.3308-3 2.3257-3 2.3208-3 2.3158-3
 H, KJ/KG        316637.9 316927.4 312147.8 312474.9 312799.3 313121.1 313440.4 313757.2
 U, KJ/KG        272687.0 272886.8 269428.4 269662.8 269894.7 270124.2 270351.4 270576.3
 G, KJ/KG       -616819.4-618554.7-590279.7-591998.9-593718.8-595439.2-597160.3-598882.0
 S, KJ/(KG)(K)   173.5051 173.5588 171.8910 171.9532 172.0148 172.0758 172.1362 172.1961

 M, (1/n)           1.018    1.018    1.022    1.022    1.021    1.021    1.021    1.021
 (dLV/dLP)t      -1.00949 -1.00932 -1.01322 -1.01297 -1.01273 -1.01249 -1.01226 -1.01203
 (dLV/dLT)p        1.0988   1.0968   1.1408   1.1379   1.1351   1.1324   1.1297   1.1270
 Cp, KJ/(KG)(K)   29.0385  28.8589  32.8426  32.5736  32.3110  32.0549  31.8050  31.5611
 GAMMAs            1.4929   1.4954   1.4477   1.4505   1.4533   1.4561   1.4589   1.4617
 SON VEL,M/SEC     8100.2   8115.3   7864.1   7880.4   7896.5   7912.6   7928.7   7944.6

 TRANSPORT PROPERTIES (GASES ONLY)
   CONDUCTIVITY IN UNITS OF MILLIWATTS/(CM)(K)

 VISC,MILLIPOISE  0.58782  0.58853  0.58035  0.58098  0.58161  0.58224  0.58289  0.58353

  WITH EQUILIBRIUM REACTIONS

 Cp, KJ/(KG)(K)   29.0385  28.8589  32.8426  32.5736  32.3110  32.0549  31.8050  31.5611
 CONDUCTIVITY     27.0527  26.8956  30.6478  30.4030  30.1645  29.9322  29.7059  29.4854
 PRANDTL NUMBER    0.6310   0.6315   0.6219   0.6225   0.6230   0.6235   0.6241   0.6246

  WITH FROZEN REACTIONS

 Cp, KJ/(KG)(K)   20.6205  20.6207  20.6171  20.6174  20.6177  20.6180  20.6183  20.6185
 CONDUCTIVITY     18.0309  18.0558  17.7406  17.7638  17.7871  17.8105  17.8341  17.8577
 PRANDTL NUMBER    0.6722   0.6721   0.6745   0.6743   0.6742   0.6740   0.6739   0.6738

 MOLE FRACTIONS

 *e-              0.00001  0.00001  0.00001  0.00001  0.00001  0.00001  0.00001  0.00001
 *H               0.99021  0.99039  0.98621  0.98648  0.98674  0.98700  0.98725  0.98750
 *H+              0.00001  0.00001  0.00001  0.00001  0.00001  0.00001  0.00001  0.00001
 *H2              0.00977  0.00958  0.01377  0.01350  0.01324  0.01298  0.01273  0.01249

  * THERMODYNAMIC PROPERTIES FITTED TO 20000.K

 NOTE. WEIGHT FRACTION OF FUEL IN TOTAL FUELS AND OF OXIDANT IN TOTAL OXIDANTS









               THERMODYNAMIC EQUILIBRIUM PROPERTIES AT ASSIGNED

                           TEMPERATURE AND PRESSURE

 CASE =                

             REACTANT                    WT FRACTION      ENERGY      TEMP
                                          (SEE NOTE)     KJ/KG-MOL      K  
             H2                           1.0000000         0.000      0.000

 O/F=    0.00000  %FUEL=100.000000  R,EQ.RATIO= 0.000000  PHI,EQ.RATIO= 0.000000

 THERMODYNAMIC PROPERTIES

 P, BAR            1.0000   1.0000   1.0000   1.0000   1.0000   1.0000   1.0000   1.0000
 T, K             5310.00  5320.00  5330.00  5340.00  5350.00  5360.00  5370.00  5380.00
 RHO, KG/CU M    2.3109-3 2.3060-3 2.3012-3 2.2964-3 2.2916-3 2.2868-3 2.2821-3 2.2774-3
 H, KJ/KG        314071.6 314383.7 314693.5 315001.0 315306.4 315609.6 315910.7 316209.9
 U, KJ/KG        270799.0 271019.5 271237.9 271454.3 271668.6 271881.0 272091.5 272300.1
 G, KJ/KG       -600604.2-602327.1-604050.5-605774.5-607499.1-609224.2-610950.0-612676.2
 S, KJ/(KG)(K)   172.2553 172.3141 172.3722 172.4299 172.4870 172.5436 172.5998 172.6554

 M, (1/n)           1.020    1.020    1.020    1.020    1.019    1.019    1.019    1.019
 (dLV/dLP)t      -1.01181 -1.01159 -1.01138 -1.01117 -1.01097 -1.01077 -1.01057 -1.01038
 (dLV/dLT)p        1.1245   1.1219   1.1195   1.1171   1.1147   1.1124   1.1102   1.1080
 Cp, KJ/(KG)(K)   31.3232  31.0911  30.8646  30.6435  30.4279  30.2174  30.0120  29.8116
 GAMMAs            1.4644   1.4672   1.4699   1.4726   1.4752   1.4779   1.4805   1.4831
 SON VEL,M/SEC     7960.5   7976.4   7992.1   8007.8   8023.4   8038.9   8054.4   8069.8

 TRANSPORT PROPERTIES (GASES ONLY)
   CONDUCTIVITY IN UNITS OF MILLIWATTS/(CM)(K)

 VISC,MILLIPOISE  0.58419  0.58485  0.58551  0.58618  0.58686  0.58754  0.58823  0.58892

  WITH EQUILIBRIUM REACTIONS

 Cp, KJ/(KG)(K)   31.3232  31.0911  30.8646  30.6435  30.4279  30.2174  30.0120  29.8116
 CONDUCTIVITY     29.2707  29.0615  28.8578  28.6594  28.4662  28.2781  28.0949  27.9165
 PRANDTL NUMBER    0.6252   0.6257   0.6262   0.6268   0.6273   0.6278   0.6284   0.6289

  WITH FROZEN REACTIONS

 Cp, KJ/(KG)(K)   20.6188  20.6190  20.6192  20.6195  20.6197  20.6199  20.6201  20.6203
 CONDUCTIVITY     17.8814  17.9053  17.9292  17.9533  17.9775  18.0017  18.0261  18.0505
 PRANDTL NUMBER    0.6736   0.6735   0.6734   0.6732   0.6731   0.6730   0.6729   0.6728

 MOLE FRACTIONS

 *e-              0.00001  0.00001  0.00001  0.00001  0.00001  0.00001  0.00001  0.00001
 *H               0.98773  0.98797  0.98820  0.98842  0.98864  0.98885  0.98906  0.98926
 *H+              0.00001  0.00001  0.00001  0.00001  0.00001  0.00001  0.00001  0.00001
 *H2              0.01225  0.01201  0.01178  0.01156  0.01134  0.01113  0.01092  0.01071

  * THERMODYNAMIC PROPERTIES FITTED TO 20000.K

 NOTE. WEIGHT FRACTION OF FUEL IN TOTAL FUELS AND OF OXIDANT IN TOTAL OXIDANTS









               THERMODYNAMIC EQUILIBRIUM PROPERTIES AT ASSIGNED

                           TEMPERATURE AND PRESSURE

 CASE =                

             REACTANT                    WT FRACTION      ENERGY      TEMP
                                          (SEE NOTE)     KJ/KG-MOL      K  
             H2                           1.0000000         0.000      0.000

 O/F=    0.00000  %FUEL=100.000000  R,EQ.RATIO= 0.000000  PHI,EQ.RATIO= 0.000000

 THERMODYNAMIC PROPERTIES

 P, BAR            1.0000   1.1000   1.1000   1.1000   1.1000   1.1000   1.1000   1.1000
 T, K             5390.00  5250.00  5260.00  5270.00  5280.00  5290.00  5300.00  5310.00
 RHO, KG/CU M    2.2727-3 2.5783-3 2.5727-3 2.5671-3 2.5615-3 2.5560-3 2.5505-3 2.5450-3
 H, KJ/KG        316507.0 311548.6 311886.6 312221.8 312554.2 312883.8 313210.7 313535.1
 U, KJ/KG        272506.8 268885.5 269129.9 269371.6 269610.8 269847.4 270081.6 270313.3
 G, KJ/KG       -614403.1-586210.8-587921.1-589632.1-591343.7-593055.9-594768.8-596482.3
 S, KJ/(KG)(K)   172.7106 171.0018 171.0661 171.1298 171.1928 171.2551 171.3169 171.3780

 M, (1/n)           1.019    1.023    1.023    1.023    1.022    1.022    1.022    1.021
 (dLV/dLP)t      -1.01019 -1.01444 -1.01417 -1.01391 -1.01365 -1.01340 -1.01316 -1.01291
 (dLV/dLT)p        1.1059   1.1539   1.1507   1.1477   1.1447   1.1417   1.1389   1.1361
 Cp, KJ/(KG)(K)   29.6161  33.9526  33.6609  33.3761  33.0982  32.8270  32.5622  32.3039
 GAMMAs            1.4856   1.4372   1.4401   1.4429   1.4457   1.4485   1.4513   1.4541
 SON VEL,M/SEC     8085.1   7830.5   7846.9   7863.2   7879.4   7895.6   7911.7   7927.7

 TRANSPORT PROPERTIES (GASES ONLY)
   CONDUCTIVITY IN UNITS OF MILLIWATTS/(CM)(K)

 VISC,MILLIPOISE  0.58962  0.58186  0.58246  0.58306  0.58367  0.58429  0.58492  0.58555

  WITH EQUILIBRIUM REACTIONS

 Cp, KJ/(KG)(K)   29.6161  33.9526  33.6609  33.3761  33.0982  32.8270  32.5622  32.3039
 CONDUCTIVITY     27.7429  31.8695  31.6012  31.3397  31.0847  30.8363  30.5941  30.3582
 PRANDTL NUMBER    0.6294   0.6199   0.6204   0.6209   0.6215   0.6220   0.6225   0.6231

  WITH FROZEN REACTIONS

 Cp, KJ/(KG)(K)   20.6205  20.6166  20.6169  20.6172  20.6175  20.6178  20.6181  20.6184
 CONDUCTIVITY     18.0751  17.7672  17.7900  17.8128  17.8359  17.8590  17.8822  17.9056
 PRANDTL NUMBER    0.6727   0.6752   0.6750   0.6749   0.6747   0.6746   0.6744   0.6743

 MOLE FRACTIONS

 *e-              0.00001  0.00001  0.00001  0.00001  0.00001  0.00001  0.00001  0.00001
 *H               0.98946  0.98488  0.98517  0.98546  0.98574  0.98601  0.98628  0.98654
 *H+              0.00001  0.00001  0.00001  0.00001  0.00001  0.00001  0.00001  0.00001
 *H2              0.01051  0.01511  0.01481  0.01453  0.01424  0.01397  0.01370  0.01344

  * THERMODYNAMIC PROPERTIES FITTED TO 20000.K

 NOTE. WEIGHT FRACTION OF FUEL IN TOTAL FUELS AND OF OXIDANT IN TOTAL OXIDANTS









               THERMODYNAMIC EQUILIBRIUM PROPERTIES AT ASSIGNED

                           TEMPERATURE AND PRESSURE

 CASE =                

             REACTANT                    WT FRACTION      ENERGY      TEMP
                                          (SEE NOTE)     KJ/KG-MOL      K  
             H2                           1.0000000         0.000      0.000

 O/F=    0.00000  %FUEL=100.000000  R,EQ.RATIO= 0.000000  PHI,EQ.RATIO= 0.000000

 THERMODYNAMIC PROPERTIES

 P, BAR            1.1000   1.1000   1.1000   1.1000   1.1000   1.1000   1.1000   1.1000
 T, K             5320.00  5330.00  5340.00  5350.00  5360.00  5370.00  5380.00  5390.00
 RHO, KG/CU M    2.5396-3 2.5342-3 2.5288-3 2.5235-3 2.5182-3 2.5130-3 2.5077-3 2.5025-3
 H, KJ/KG        313856.8 314176.1 314493.0 314807.4 315119.6 315429.5 315737.2 316042.7
 U, KJ/KG        270542.7 270769.8 270994.7 271217.4 271437.9 271656.4 271872.8 272087.3
 G, KJ/KG       -598196.4-599911.0-601626.3-603342.2-605058.7-606775.7-608493.3-610211.5
 S, KJ/(KG)(K)   171.4386 171.4985 171.5579 171.6168 171.6750 171.7328 171.7901 171.8468

 M, (1/n)           1.021    1.021    1.021    1.020    1.020    1.020    1.020    1.020
 (dLV/dLP)t      -1.01268 -1.01245 -1.01222 -1.01200 -1.01178 -1.01157 -1.01136 -1.01115
 (dLV/dLT)p        1.1333   1.1307   1.1280   1.1255   1.1230   1.1205   1.1181   1.1158
 Cp, KJ/(KG)(K)   32.0517  31.8056  31.5654  31.3309  31.1020  30.8786  30.6606  30.4478
 GAMMAs            1.4569   1.4596   1.4623   1.4650   1.4677   1.4703   1.4730   1.4756
 SON VEL,M/SEC     7943.7   7959.6   7975.5   7991.2   8006.9   8022.6   8038.1   8053.6

 TRANSPORT PROPERTIES (GASES ONLY)
   CONDUCTIVITY IN UNITS OF MILLIWATTS/(CM)(K)

 VISC,MILLIPOISE  0.58619  0.58683  0.58748  0.58814  0.58880  0.58947  0.59014  0.59082

  WITH EQUILIBRIUM REACTIONS

 Cp, KJ/(KG)(K)   32.0517  31.8056  31.5654  31.3309  31.1020  30.8786  30.6606  30.4478
 CONDUCTIVITY     30.1282  29.9041  29.6857  29.4730  29.2656  29.0637  28.8669  28.6752
 PRANDTL NUMBER    0.6236   0.6241   0.6247   0.6252   0.6257   0.6263   0.6268   0.6273

  WITH FROZEN REACTIONS

 Cp, KJ/(KG)(K)   20.6186  20.6189  20.6191  20.6194  20.6196  20.6198  20.6200  20.6202
 CONDUCTIVITY     17.9291  17.9526  17.9763  18.0001  18.0240  18.0480  18.0721  18.0963
 PRANDTL NUMBER    0.6741   0.6740   0.6739   0.6737   0.6736   0.6735   0.6733   0.6732

 MOLE FRACTIONS

 *e-              0.00001  0.00001  0.00001  0.00001  0.00001  0.00001  0.00001  0.00001
 *H               0.98680  0.98705  0.98729  0.98753  0.98777  0.98800  0.98822  0.98844
 *H+              0.00001  0.00001  0.00001  0.00001  0.00001  0.00001  0.00001  0.00001
 *H2              0.01318  0.01293  0.01269  0.01245  0.01221  0.01198  0.01176  0.01154

  * THERMODYNAMIC PROPERTIES FITTED TO 20000.K

 NOTE. WEIGHT FRACTION OF FUEL IN TOTAL FUELS AND OF OXIDANT IN TOTAL OXIDANTS









               THERMODYNAMIC EQUILIBRIUM PROPERTIES AT ASSIGNED

                           TEMPERATURE AND PRESSURE

 CASE =                

             REACTANT                    WT FRACTION      ENERGY      TEMP
                                          (SEE NOTE)     KJ/KG-MOL      K  
             H2                           1.0000000         0.000      0.000

 O/F=    0.00000  %FUEL=100.000000  R,EQ.RATIO= 0.000000  PHI,EQ.RATIO= 0.000000

 THERMODYNAMIC PROPERTIES

 P, BAR            1.2000   1.2000   1.2000   1.2000   1.2000   1.2000   1.2000   1.2000
 T, K             5250.00  5260.00  5270.00  5280.00  5290.00  5300.00  5310.00  5320.00
 RHO, KG/CU M    2.8164-3 2.8102-3 2.8040-3 2.7978-3 2.7917-3 2.7857-3 2.7796-3 2.7736-3
 H, KJ/KG        310954.2 311303.1 311648.8 311991.6 312331.4 312668.3 313002.4 313333.7
 U, KJ/KG        268346.9 268601.2 268852.6 269101.3 269347.2 269590.5 269831.2 270069.3
 G, KJ/KG       -582501.0-584203.1-585905.9-587609.4-589313.5-591018.3-592723.7-594429.7
 S, KJ/(KG)(K)   170.1819 170.2483 170.3140 170.3790 170.4433 170.5069 170.5699 170.6322

 M, (1/n)           1.024    1.024    1.024    1.024    1.023    1.023    1.023    1.022
 (dLV/dLP)t      -1.01565 -1.01536 -1.01508 -1.01480 -1.01453 -1.01426 -1.01400 -1.01375
 (dLV/dLT)p        1.1667   1.1633   1.1600   1.1568   1.1536   1.1506   1.1475   1.1446
 Cp, KJ/(KG)(K)   35.0449  34.7311  34.4248  34.1258  33.8339  33.5489  33.2706  32.9990
 GAMMAs            1.4277   1.4306   1.4334   1.4362   1.4391   1.4419   1.4446   1.4474
 SON VEL,M/SEC     7799.5   7815.9   7832.3   7848.6   7864.9   7881.1   7897.3   7913.4

 TRANSPORT PROPERTIES (GASES ONLY)
   CONDUCTIVITY IN UNITS OF MILLIWATTS/(CM)(K)

 VISC,MILLIPOISE  0.58334  0.58392  0.58450  0.58509  0.58569  0.58629  0.58690  0.58752

  WITH EQUILIBRIUM REACTIONS

 Cp, KJ/(KG)(K)   35.0449  34.7311  34.4248  34.1258  33.8339  33.5489  33.2706  32.9990
 CONDUCTIVITY     33.0750  32.7838  32.4998  32.2229  31.9528  31.6895  31.4328  31.1825
 PRANDTL NUMBER    0.6181   0.6186   0.6191   0.6196   0.6202   0.6207   0.6212   0.6217

  WITH FROZEN REACTIONS

 Cp, KJ/(KG)(K)   20.6161  20.6164  20.6168  20.6171  20.6174  20.6177  20.6180  20.6183
 CONDUCTIVITY     17.7936  17.8159  17.8384  17.8610  17.8837  17.9066  17.9296  17.9527
 PRANDTL NUMBER    0.6759   0.6757   0.6755   0.6754   0.6752   0.6751   0.6749   0.6748

 MOLE FRACTIONS

 *e-              0.00001  0.00001  0.00001  0.00001  0.00001  0.00001  0.00001  0.00001
 *H               0.98355  0.98387  0.98418  0.98448  0.98478  0.98507  0.98536  0.98564
 *H+              0.00001  0.00001  0.00001  0.00001  0.00001  0.00001  0.00001  0.00001
 *H2              0.01644  0.01612  0.01581  0.01550  0.01520  0.01491  0.01463  0.01435

  * THERMODYNAMIC PROPERTIES FITTED TO 20000.K

 NOTE. WEIGHT FRACTION OF FUEL IN TOTAL FUELS AND OF OXIDANT IN TOTAL OXIDANTS









               THERMODYNAMIC EQUILIBRIUM PROPERTIES AT ASSIGNED

                           TEMPERATURE AND PRESSURE

 CASE =                

             REACTANT                    WT FRACTION      ENERGY      TEMP
                                          (SEE NOTE)     KJ/KG-MOL      K  
             H2                           1.0000000         0.000      0.000

 O/F=    0.00000  %FUEL=100.000000  R,EQ.RATIO= 0.000000  PHI,EQ.RATIO= 0.000000

 THERMODYNAMIC PROPERTIES

 P, BAR            1.2000   1.2000   1.2000   1.2000   1.2000   1.2000   1.2000   1.3200
 T, K             5330.00  5340.00  5350.00  5360.00  5370.00  5380.00  5390.00  5250.00
 RHO, KG/CU M    2.7677-3 2.7618-3 2.7559-3 2.7501-3 2.7443-3 2.7385-3 2.7328-3 3.1029-3
 H, KJ/KG        313662.4 313988.4 314311.9 314632.9 314951.4 315267.6 315581.4 310247.2
 U, KJ/KG        270305.0 270538.3 270769.2 270997.8 271224.2 271448.4 271670.4 267706.2
 G, KJ/KG       -596136.3-597843.6-599551.4-601259.9-602968.9-604678.6-606388.8-578443.2
 S, KJ/(KG)(K)   170.6939 170.7550 170.8156 170.8755 170.9349 170.9937 171.0520 169.2744

 M, (1/n)           1.022    1.022    1.022    1.021    1.021    1.021    1.021    1.026
 (dLV/dLP)t      -1.01350 -1.01325 -1.01302 -1.01278 -1.01255 -1.01233 -1.01210 -1.01708
 (dLV/dLT)p        1.1417   1.1389   1.1361   1.1334   1.1308   1.1282   1.1257   1.1819
 Cp, KJ/(KG)(K)   32.7338  32.4749  32.2221  31.9753  31.7344  31.4991  31.2694  36.3327
 GAMMAs            1.4502   1.4529   1.4556   1.4583   1.4610   1.4637   1.4663   1.4174
 SON VEL,M/SEC     7929.4   7945.4   7961.3   7977.1   7992.9   8008.6   8024.2   7765.1

 TRANSPORT PROPERTIES (GASES ONLY)
   CONDUCTIVITY IN UNITS OF MILLIWATTS/(CM)(K)

 VISC,MILLIPOISE  0.58814  0.58877  0.58940  0.59004  0.59069  0.59134  0.59200  0.58511

  WITH EQUILIBRIUM REACTIONS

 Cp, KJ/(KG)(K)   32.7338  32.4749  32.2221  31.9753  31.7344  31.4991  31.2694  36.3327
 CONDUCTIVITY     30.9385  30.7006  30.4687  30.2426  30.0222  29.8074  29.5981  34.5006
 PRANDTL NUMBER    0.6223   0.6228   0.6233   0.6239   0.6244   0.6249   0.6254   0.6162

  WITH FROZEN REACTIONS

 Cp, KJ/(KG)(K)   20.6186  20.6188  20.6191  20.6193  20.6196  20.6198  20.6200  20.6154
 CONDUCTIVITY     17.9759  17.9992  18.0226  18.0462  18.0699  18.0936  18.1175  17.8249
 PRANDTL NUMBER    0.6746   0.6745   0.6743   0.6742   0.6740   0.6739   0.6738   0.6767

 MOLE FRACTIONS

 *e-              0.00001  0.00001  0.00001  0.00001  0.00001  0.00001  0.00001  0.00001
 *H               0.98591  0.98617  0.98643  0.98669  0.98694  0.98718  0.98742  0.98197
 *H+              0.00001  0.00001  0.00001  0.00001  0.00001  0.00001  0.00001  0.00001
 *H2              0.01408  0.01381  0.01355  0.01329  0.01304  0.01280  0.01256  0.01802

  * THERMODYNAMIC PROPERTIES FITTED TO 20000.K

 NOTE. WEIGHT FRACTION OF FUEL IN TOTAL FUELS AND OF OXIDANT IN TOTAL OXIDANTS









               THERMODYNAMIC EQUILIBRIUM PROPERTIES AT ASSIGNED

                           TEMPERATURE AND PRESSURE

 CASE =                

             REACTANT                    WT FRACTION      ENERGY      TEMP
                                          (SEE NOTE)     KJ/KG-MOL      K  
             H2                           1.0000000         0.000      0.000

 O/F=    0.00000  %FUEL=100.000000  R,EQ.RATIO= 0.000000  PHI,EQ.RATIO= 0.000000

 THERMODYNAMIC PROPERTIES

 P, BAR            1.3200   1.3200   1.3200   1.3200   1.3200   1.3200   1.3200   1.3200
 T, K             5260.00  5270.00  5280.00  5290.00  5300.00  5310.00  5320.00  5330.00
 RHO, KG/CU M    3.0959-3 3.0890-3 3.0822-3 3.0753-3 3.0686-3 3.0619-3 3.0552-3 3.0486-3
 H, KJ/KG        310608.8 310967.1 311322.1 311673.9 312022.6 312368.2 312710.8 313050.6
 U, KJ/KG        267972.2 268235.1 268495.0 268751.9 269006.0 269257.2 269505.7 269751.5
 G, KJ/KG       -580136.3-581830.1-583524.5-585219.6-586915.4-588611.8-590308.9-592006.6
 S, KJ/(KG)(K)   169.3432 169.4112 169.4785 169.5451 169.6109 169.6761 169.7406 169.8044

 M, (1/n)           1.026    1.025    1.025    1.025    1.024    1.024    1.024    1.023
 (dLV/dLP)t      -1.01677 -1.01646 -1.01616 -1.01587 -1.01558 -1.01530 -1.01502 -1.01475
 (dLV/dLT)p        1.1783   1.1747   1.1712   1.1678   1.1644   1.1611   1.1579   1.1548
 Cp, KJ/(KG)(K)   35.9934  35.6621  35.3386  35.0226  34.7140  34.4127  34.1184  33.8310
 GAMMAs            1.4202   1.4231   1.4259   1.4287   1.4315   1.4343   1.4370   1.4398
 SON VEL,M/SEC     7781.6   7798.1   7814.5   7830.8   7847.1   7863.4   7879.6   7895.7

 TRANSPORT PROPERTIES (GASES ONLY)
   CONDUCTIVITY IN UNITS OF MILLIWATTS/(CM)(K)

 VISC,MILLIPOISE  0.58565  0.58621  0.58677  0.58734  0.58792  0.58850  0.58909  0.58969

  WITH EQUILIBRIUM REACTIONS

 Cp, KJ/(KG)(K)   35.9934  35.6621  35.3386  35.0226  34.7140  34.4127  34.1184  33.8310
 CONDUCTIVITY     34.1827  33.8725  33.5699  33.2747  32.9867  32.7057  32.4316  32.1643
 PRANDTL NUMBER    0.6167   0.6172   0.6177   0.6182   0.6187   0.6192   0.6197   0.6202

  WITH FROZEN REACTIONS

 Cp, KJ/(KG)(K)   20.6158  20.6162  20.6165  20.6169  20.6172  20.6175  20.6179  20.6182
 CONDUCTIVITY     17.8468  17.8688  17.8909  17.9132  17.9356  17.9581  17.9808  18.0035
 PRANDTL NUMBER    0.6765   0.6763   0.6762   0.6760   0.6758   0.6757   0.6755   0.6753

 MOLE FRACTIONS

 *e-              0.00001  0.00001  0.00001  0.00001  0.00001  0.00001  0.00001  0.00001
 *H               0.98231  0.98265  0.98299  0.98331  0.98363  0.98394  0.98425  0.98454
 *H+              0.00001  0.00001  0.00001  0.00001  0.00001  0.00001  0.00001  0.00001
 *H2              0.01767  0.01733  0.01700  0.01667  0.01635  0.01604  0.01574  0.01544

  * THERMODYNAMIC PROPERTIES FITTED TO 20000.K

 NOTE. WEIGHT FRACTION OF FUEL IN TOTAL FUELS AND OF OXIDANT IN TOTAL OXIDANTS









               THERMODYNAMIC EQUILIBRIUM PROPERTIES AT ASSIGNED

                           TEMPERATURE AND PRESSURE

 CASE =                

             REACTANT                    WT FRACTION      ENERGY      TEMP
                                          (SEE NOTE)     KJ/KG-MOL      K  
             H2                           1.0000000         0.000      0.000

 O/F=    0.00000  %FUEL=100.000000  R,EQ.RATIO= 0.000000  PHI,EQ.RATIO= 0.000000

 THERMODYNAMIC PROPERTIES

 P, BAR            1.3200   1.3200   1.3200   1.3200   1.3200   1.3200   1.4800   1.4800
 T, K             5340.00  5350.00  5360.00  5370.00  5380.00  5390.00  5250.00  5260.00
 RHO, KG/CU M    3.0420-3 3.0354-3 3.0289-3 3.0225-3 3.0161-3 3.0097-3 3.4862-3 3.4782-3
 H, KJ/KG        313387.5 313721.6 314053.0 314381.8 314708.0 315031.6 309315.0 309693.2
 U, KJ/KG        269994.7 270235.4 270473.5 270709.2 270942.6 271173.6 266861.5 267142.7
 G, KJ/KG       -593705.0-595404.0-597103.6-598803.8-600504.7-602206.1-573581.0-575263.1
 S, KJ/(KG)(K)   169.8675 169.9300 169.9919 170.0532 170.1139 170.1740 168.1707 168.2426

 M, (1/n)           1.023    1.023    1.023    1.022    1.022    1.022    1.028    1.028
 (dLV/dLP)t      -1.01448 -1.01422 -1.01397 -1.01372 -1.01347 -1.01323 -1.01895 -1.01860
 (dLV/dLT)p        1.1517   1.1487   1.1458   1.1429   1.1401   1.1374   1.2018   1.1978
 Cp, KJ/(KG)(K)   33.5503  33.2762  33.0085  32.7470  32.4917  32.2423  38.0117  37.6399
 GAMMAs            1.4426   1.4453   1.4480   1.4507   1.4534   1.4561   1.4051   1.4079
 SON VEL,M/SEC     7911.8   7927.8   7943.8   7959.7   7975.6   7991.3   7723.5   7740.1

 TRANSPORT PROPERTIES (GASES ONLY)
   CONDUCTIVITY IN UNITS OF MILLIWATTS/(CM)(K)

 VISC,MILLIPOISE  0.59030  0.59091  0.59153  0.59215  0.59278  0.59342  0.58743  0.58794

  WITH EQUILIBRIUM REACTIONS

 Cp, KJ/(KG)(K)   33.5503  33.2762  33.0085  32.7470  32.4917  32.2423  38.0117  37.6399
 CONDUCTIVITY     31.9035  31.6492  31.4011  31.1592  30.9232  30.6932  36.3666  36.0144
 PRANDTL NUMBER    0.6208   0.6213   0.6218   0.6223   0.6228   0.6234   0.6140   0.6145

  WITH FROZEN REACTIONS

 Cp, KJ/(KG)(K)   20.6184  20.6187  20.6190  20.6192  20.6195  20.6197  20.6146  20.6150
 CONDUCTIVITY     18.0264  18.0495  18.0726  18.0959  18.1192  18.1427  17.8663  17.8875
 PRANDTL NUMBER    0.6752   0.6750   0.6749   0.6747   0.6746   0.6744   0.6778   0.6776

 MOLE FRACTIONS

 *e-              0.00001  0.00001  0.00001  0.00001  0.00001  0.00001  0.00001  0.00001
 *H               0.98483  0.98512  0.98540  0.98567  0.98593  0.98620  0.97987  0.98026
 *H+              0.00001  0.00001  0.00001  0.00001  0.00001  0.00001  0.00001  0.00001
 *H2              0.01515  0.01486  0.01458  0.01431  0.01405  0.01378  0.02012  0.01973

  * THERMODYNAMIC PROPERTIES FITTED TO 20000.K

 NOTE. WEIGHT FRACTION OF FUEL IN TOTAL FUELS AND OF OXIDANT IN TOTAL OXIDANTS









               THERMODYNAMIC EQUILIBRIUM PROPERTIES AT ASSIGNED

                           TEMPERATURE AND PRESSURE

 CASE =                

             REACTANT                    WT FRACTION      ENERGY      TEMP
                                          (SEE NOTE)     KJ/KG-MOL      K  
             H2                           1.0000000         0.000      0.000

 O/F=    0.00000  %FUEL=100.000000  R,EQ.RATIO= 0.000000  PHI,EQ.RATIO= 0.000000

 THERMODYNAMIC PROPERTIES

 P, BAR            1.4800   1.4800   1.4800   1.4800   1.4800   1.4800   1.4800   1.4800
 T, K             5270.00  5280.00  5290.00  5300.00  5310.00  5320.00  5330.00  5340.00
 RHO, KG/CU M    3.4703-3 3.4625-3 3.4547-3 3.4470-3 3.4393-3 3.4317-3 3.4242-3 3.4167-3
 H, KJ/KG        310067.8 310438.8 310806.3 311170.3 311531.0 311888.5 312242.7 312593.8
 U, KJ/KG        267420.6 267695.1 267966.4 268234.5 268499.5 268761.5 269020.6 269276.8
 G, KJ/KG       -576945.8-578629.3-580313.5-581998.4-583684.0-585370.2-587057.1-588744.7
 S, KJ/(KG)(K)   168.3138 168.3841 168.4536 168.5224 168.5904 168.6576 168.7242 168.7900

 M, (1/n)           1.027    1.027    1.027    1.026    1.026    1.026    1.025    1.025
 (dLV/dLP)t      -1.01827 -1.01794 -1.01761 -1.01730 -1.01699 -1.01668 -1.01638 -1.01609
 (dLV/dLT)p        1.1939   1.1900   1.1862   1.1825   1.1789   1.1754   1.1720   1.1686
 Cp, KJ/(KG)(K)   37.2767  36.9218  36.5751  36.2363  35.9054  35.5820  35.2661  34.9575
 GAMMAs            1.4107   1.4135   1.4163   1.4191   1.4219   1.4247   1.4274   1.4302
 SON VEL,M/SEC     7756.6   7773.0   7789.4   7805.8   7822.2   7838.4   7854.7   7870.9

 TRANSPORT PROPERTIES (GASES ONLY)
   CONDUCTIVITY IN UNITS OF MILLIWATTS/(CM)(K)

 VISC,MILLIPOISE  0.58846  0.58898  0.58952  0.59006  0.59061  0.59117  0.59174  0.59231

  WITH EQUILIBRIUM REACTIONS

 Cp, KJ/(KG)(K)   37.2767  36.9218  36.5751  36.2363  35.9054  35.5820  35.2661  34.9575
 CONDUCTIVITY     35.6705  35.3349  35.0072  34.6873  34.3751  34.0704  33.7729  33.4826
 PRANDTL NUMBER    0.6150   0.6154   0.6159   0.6164   0.6169   0.6174   0.6179   0.6184

  WITH FROZEN REACTIONS

 Cp, KJ/(KG)(K)   20.6154  20.6158  20.6162  20.6166  20.6169  20.6173  20.6176  20.6179
 CONDUCTIVITY     17.9089  17.9304  17.9521  17.9739  17.9958  18.0179  18.0401  18.0624
 PRANDTL NUMBER    0.6774   0.6772   0.6770   0.6768   0.6766   0.6765   0.6763   0.6761

 MOLE FRACTIONS

 *e-              0.00001  0.00001  0.00001  0.00001  0.00001  0.00001  0.00001  0.00001
 *H               0.98063  0.98100  0.98137  0.98172  0.98207  0.98240  0.98274  0.98306
 *H+              0.00001  0.00001  0.00001  0.00001  0.00001  0.00001  0.00001  0.00001
 *H2              0.01935  0.01898  0.01862  0.01827  0.01792  0.01758  0.01725  0.01692

  * THERMODYNAMIC PROPERTIES FITTED TO 20000.K

 NOTE. WEIGHT FRACTION OF FUEL IN TOTAL FUELS AND OF OXIDANT IN TOTAL OXIDANTS









               THERMODYNAMIC EQUILIBRIUM PROPERTIES AT ASSIGNED

                           TEMPERATURE AND PRESSURE

 CASE =                

             REACTANT                    WT FRACTION      ENERGY      TEMP
                                          (SEE NOTE)     KJ/KG-MOL      K  
             H2                           1.0000000         0.000      0.000

 O/F=    0.00000  %FUEL=100.000000  R,EQ.RATIO= 0.000000  PHI,EQ.RATIO= 0.000000

 THERMODYNAMIC PROPERTIES

 P, BAR            1.4800   1.4800   1.4800   1.4800   1.4800   1.6500   1.6500   1.6500
 T, K             5350.00  5360.00  5370.00  5380.00  5390.00  5250.00  5260.00  5270.00
 RHO, KG/CU M    3.4092-3 3.4018-3 3.3945-3 3.3872-3 3.3799-3 3.8950-3 3.8860-3 3.8770-3
 H, KJ/KG        312941.9 313286.9 313629.1 313968.4 314305.0 308337.3 308732.8 309124.2
 U, KJ/KG        269530.2 269780.8 270028.8 270274.1 270516.9 265975.6 266272.6 266565.9
 G, KJ/KG       -590432.9-592121.8-593811.3-595501.4-597192.2-568969.8-570641.2-572313.4
 S, KJ/(KG)(K)   168.8551 168.9195 168.9833 169.0464 169.1089 167.1061 167.1814 167.2557

 M, (1/n)           1.025    1.024    1.024    1.024    1.023    1.030    1.030    1.030
 (dLV/dLP)t      -1.01581 -1.01553 -1.01525 -1.01498 -1.01472 -1.02089 -1.02052 -1.02015
 (dLV/dLT)p        1.1653   1.1620   1.1589   1.1558   1.1527   1.2225   1.2181   1.2138
 Cp, KJ/(KG)(K)   34.6560  34.3614  34.0736  33.7924  33.5176  39.7493  39.3448  38.9493
 GAMMAs            1.4329   1.4356   1.4384   1.4411   1.4438   1.3937   1.3965   1.3992
 SON VEL,M/SEC     7887.0   7903.1   7919.1   7935.1   7951.1   7683.8   7700.3   7716.8

 TRANSPORT PROPERTIES (GASES ONLY)
   CONDUCTIVITY IN UNITS OF MILLIWATTS/(CM)(K)

 VISC,MILLIPOISE  0.59289  0.59348  0.59407  0.59467  0.59528  0.58985  0.59032  0.59081

  WITH EQUILIBRIUM REACTIONS

 Cp, KJ/(KG)(K)   34.6560  34.3614  34.0736  33.7924  33.5176  39.7493  39.3448  38.9493
 CONDUCTIVITY     33.1993  32.9228  32.6530  32.3896  32.1327  38.3066  37.9195  37.5414
 PRANDTL NUMBER    0.6189   0.6194   0.6199   0.6204   0.6209   0.6121   0.6125   0.6130

  WITH FROZEN REACTIONS

 Cp, KJ/(KG)(K)   20.6182  20.6185  20.6188  20.6191  20.6194  20.6137  20.6142  20.6147
 CONDUCTIVITY     18.0849  18.1075  18.1302  18.1531  18.1761  17.9097  17.9303  17.9510
 PRANDTL NUMBER    0.6759   0.6758   0.6756   0.6755   0.6753   0.6789   0.6787   0.6785

 MOLE FRACTIONS

 *e-              0.00001  0.00001  0.00001  0.00001  0.00001  0.00001  0.00001  0.00001
 *H               0.98338  0.98369  0.98399  0.98429  0.98458  0.97766  0.97809  0.97851
 *H+              0.00001  0.00001  0.00001  0.00001  0.00001  0.00001  0.00001  0.00001
 *H2              0.01661  0.01630  0.01599  0.01570  0.01540  0.02233  0.02190  0.02148

  * THERMODYNAMIC PROPERTIES FITTED TO 20000.K

 NOTE. WEIGHT FRACTION OF FUEL IN TOTAL FUELS AND OF OXIDANT IN TOTAL OXIDANTS









               THERMODYNAMIC EQUILIBRIUM PROPERTIES AT ASSIGNED

                           TEMPERATURE AND PRESSURE

 CASE =                

             REACTANT                    WT FRACTION      ENERGY      TEMP
                                          (SEE NOTE)     KJ/KG-MOL      K  
             H2                           1.0000000         0.000      0.000

 O/F=    0.00000  %FUEL=100.000000  R,EQ.RATIO= 0.000000  PHI,EQ.RATIO= 0.000000

 THERMODYNAMIC PROPERTIES

 P, BAR            1.6500   1.6500   1.6500   1.6500   1.6500   1.6500   1.6500   1.6500
 T, K             5280.00  5290.00  5300.00  5310.00  5320.00  5330.00  5340.00  5350.00
 RHO, KG/CU M    3.8681-3 3.8593-3 3.8505-3 3.8419-3 3.8332-3 3.8246-3 3.8161-3 3.8077-3
 H, KJ/KG        309511.8 309895.5 310275.5 310651.9 311024.6 311393.9 311759.8 312122.3
 U, KJ/KG        266855.6 267141.7 267424.5 267703.8 267979.9 268252.7 268522.4 268789.1
 G, KJ/KG       -573986.3-575660.0-577334.4-579009.5-580685.3-582361.8-584038.9-585716.8
 S, KJ/(KG)(K)   167.3292 167.4018 167.4736 167.5445 167.6146 167.6840 167.7526 167.8204

 M, (1/n)           1.029    1.029    1.028    1.028    1.028    1.027    1.027    1.027
 (dLV/dLP)t      -1.01979 -1.01944 -1.01909 -1.01875 -1.01842 -1.01809 -1.01777 -1.01746
 (dLV/dLT)p        1.2096   1.2055   1.2014   1.1975   1.1936   1.1899   1.1862   1.1825
 Cp, KJ/(KG)(K)   38.5628  38.1850  37.8157  37.4547  37.1019  36.7570  36.4200  36.0906
 GAMMAs            1.4020   1.4048   1.4075   1.4103   1.4130   1.4158   1.4185   1.4212
 SON VEL,M/SEC     7733.3   7749.8   7766.2   7782.6   7798.9   7815.2   7831.5   7847.7

 TRANSPORT PROPERTIES (GASES ONLY)
   CONDUCTIVITY IN UNITS OF MILLIWATTS/(CM)(K)

 VISC,MILLIPOISE  0.59130  0.59180  0.59231  0.59282  0.59335  0.59388  0.59442  0.59497

  WITH EQUILIBRIUM REACTIONS

 Cp, KJ/(KG)(K)   38.5628  38.1850  37.8157  37.4547  37.1019  36.7570  36.4200  36.0906
 CONDUCTIVITY     37.1721  36.8113  36.4590  36.1148  35.7787  35.4505  35.1300  34.8170
 PRANDTL NUMBER    0.6134   0.6139   0.6143   0.6148   0.6153   0.6158   0.6163   0.6167

  WITH FROZEN REACTIONS

 Cp, KJ/(KG)(K)   20.6151  20.6155  20.6159  20.6163  20.6167  20.6171  20.6174  20.6178
 CONDUCTIVITY     17.9719  17.9929  18.0141  18.0354  18.0569  18.0785  18.1003  18.1222
 PRANDTL NUMBER    0.6783   0.6781   0.6779   0.6777   0.6775   0.6773   0.6771   0.6769

 MOLE FRACTIONS

 *e-              0.00001  0.00001  0.00001  0.00001  0.00001  0.00001  0.00001  0.00001
 *H               0.97891  0.97931  0.97971  0.98009  0.98046  0.98083  0.98119  0.98154
 *H+              0.00001  0.00001  0.00001  0.00001  0.00001  0.00001  0.00001  0.00001
 *H2              0.02107  0.02067  0.02028  0.01990  0.01952  0.01915  0.01880  0.01844

  * THERMODYNAMIC PROPERTIES FITTED TO 20000.K

 NOTE. WEIGHT FRACTION OF FUEL IN TOTAL FUELS AND OF OXIDANT IN TOTAL OXIDANTS









               THERMODYNAMIC EQUILIBRIUM PROPERTIES AT ASSIGNED

                           TEMPERATURE AND PRESSURE

 CASE =                

             REACTANT                    WT FRACTION      ENERGY      TEMP
                                          (SEE NOTE)     KJ/KG-MOL      K  
             H2                           1.0000000         0.000      0.000

 O/F=    0.00000  %FUEL=100.000000  R,EQ.RATIO= 0.000000  PHI,EQ.RATIO= 0.000000

 THERMODYNAMIC PROPERTIES

 P, BAR            1.6500   1.6500   1.6500   1.6500   1.8000   1.8000   1.8000   1.8000
 T, K             5360.00  5370.00  5380.00  5390.00  5250.00  5260.00  5270.00  5280.00
 RHO, KG/CU M    3.7993-3 3.7910-3 3.7827-3 3.7745-3 4.2572-3 4.2471-3 4.2372-3 4.2273-3
 H, KJ/KG        312481.6 312837.7 313190.7 313540.7 307485.4 307895.6 308301.6 308703.5
 U, KJ/KG        269052.7 269313.4 269571.2 269826.3 265203.7 265514.2 265820.8 266123.6
 G, KJ/KG       -587395.4-589074.6-590754.4-592434.9-565287.3-566950.1-568613.7-570278.1
 S, KJ/(KG)(K)   167.8875 167.9539 168.0195 168.0845 166.2424 166.3205 166.3976 166.4738

 M, (1/n)           1.026    1.026    1.026    1.025    1.032    1.032    1.031    1.031
 (dLV/dLP)t      -1.01715 -1.01685 -1.01656 -1.01627 -1.02257 -1.02217 -1.02178 -1.02139
 (dLV/dLT)p        1.1790   1.1755   1.1721   1.1688   1.2404   1.2357   1.2311   1.2266
 Cp, KJ/(KG)(K)   35.7686  35.4539  35.1463  34.8457  41.2441  40.8120  40.3896  39.9764
 GAMMAs            1.4239   1.4266   1.4294   1.4320   1.3848   1.3875   1.3902   1.3929
 SON VEL,M/SEC     7863.8   7880.0   7896.0   7912.1   7651.8   7668.4   7684.9   7701.4

 TRANSPORT PROPERTIES (GASES ONLY)
   CONDUCTIVITY IN UNITS OF MILLIWATTS/(CM)(K)

 VISC,MILLIPOISE  0.59553  0.59609  0.59666  0.59724  0.59196  0.59240  0.59285  0.59331

  WITH EQUILIBRIUM REACTIONS

 Cp, KJ/(KG)(K)   35.7686  35.4539  35.1463  34.8457  41.2441  40.8120  40.3896  39.9764
 CONDUCTIVITY     34.5113  34.2129  33.9215  33.6370  39.9829  39.5664  39.1593  38.7614
 PRANDTL NUMBER    0.6172   0.6177   0.6182   0.6187   0.6106   0.6110   0.6115   0.6119

  WITH FROZEN REACTIONS

 Cp, KJ/(KG)(K)   20.6181  20.6184  20.6187  20.6190  20.6130  20.6135  20.6140  20.6144
 CONDUCTIVITY     18.1442  18.1664  18.1887  18.2111  17.9475  17.9675  17.9877  18.0080
 PRANDTL NUMBER    0.6767   0.6765   0.6764   0.6762   0.6799   0.6796   0.6794   0.6792

 MOLE FRACTIONS

 *e-              0.00001  0.00001  0.00001  0.00001  0.00001  0.00001  0.00001  0.00001
 *H               0.98188  0.98222  0.98255  0.98287  0.97573  0.97619  0.97664  0.97709
 *H+              0.00001  0.00001  0.00001  0.00001  0.00001  0.00001  0.00001  0.00001
 *H2              0.01810  0.01777  0.01744  0.01711  0.02426  0.02380  0.02335  0.02290

  * THERMODYNAMIC PROPERTIES FITTED TO 20000.K

 NOTE. WEIGHT FRACTION OF FUEL IN TOTAL FUELS AND OF OXIDANT IN TOTAL OXIDANTS









               THERMODYNAMIC EQUILIBRIUM PROPERTIES AT ASSIGNED

                           TEMPERATURE AND PRESSURE

 CASE =                

             REACTANT                    WT FRACTION      ENERGY      TEMP
                                          (SEE NOTE)     KJ/KG-MOL      K  
             H2                           1.0000000         0.000      0.000

 O/F=    0.00000  %FUEL=100.000000  R,EQ.RATIO= 0.000000  PHI,EQ.RATIO= 0.000000

 THERMODYNAMIC PROPERTIES

 P, BAR            1.8000   1.8000   1.8000   1.8000   1.8000   1.8000   1.8000   1.8000
 T, K             5290.00  5300.00  5310.00  5320.00  5330.00  5340.00  5350.00  5360.00
 RHO, KG/CU M    4.2176-3 4.2079-3 4.1982-3 4.1887-3 4.1792-3 4.1698-3 4.1604-3 4.1511-3
 H, KJ/KG        309101.2 309494.9 309884.8 310270.8 310653.1 311031.7 311406.8 311778.3
 U, KJ/KG        266422.6 266717.9 267009.6 267297.7 267582.5 267863.8 268141.9 268416.8
 G, KJ/KG       -571943.2-573609.0-575275.6-576943.0-578611.0-580279.8-581949.3-583619.4
 S, KJ/(KG)(K)   166.5490 166.6234 166.6969 166.7695 166.8413 166.9123 166.9824 167.0518

 M, (1/n)           1.031    1.030    1.030    1.029    1.029    1.029    1.028    1.028
 (dLV/dLP)t      -1.02101 -1.02064 -1.02028 -1.01992 -1.01957 -1.01923 -1.01889 -1.01856
 (dLV/dLT)p        1.2221   1.2178   1.2136   1.2094   1.2054   1.2014   1.1975   1.1937
 Cp, KJ/(KG)(K)   39.5724  39.1774  38.7912  38.4135  38.0442  37.6832  37.3301  36.9850
 GAMMAs            1.3957   1.3984   1.4011   1.4038   1.4065   1.4093   1.4120   1.4147
 SON VEL,M/SEC     7717.8   7734.3   7750.7   7767.0   7783.3   7799.6   7815.9   7832.1

 TRANSPORT PROPERTIES (GASES ONLY)
   CONDUCTIVITY IN UNITS OF MILLIWATTS/(CM)(K)

 VISC,MILLIPOISE  0.59378  0.59426  0.59475  0.59524  0.59575  0.59626  0.59678  0.59731

  WITH EQUILIBRIUM REACTIONS

 Cp, KJ/(KG)(K)   39.5724  39.1774  38.7912  38.4135  38.0442  37.6832  37.3301  36.9850
 CONDUCTIVITY     38.3727  37.9927  37.6215  37.2588  36.9044  36.5581  36.2198  35.8893
 PRANDTL NUMBER    0.6123   0.6128   0.6132   0.6137   0.6141   0.6146   0.6151   0.6155

  WITH FROZEN REACTIONS

 Cp, KJ/(KG)(K)   20.6149  20.6153  20.6158  20.6162  20.6166  20.6170  20.6173  20.6177
 CONDUCTIVITY     18.0285  18.0492  18.0700  18.0909  18.1121  18.1333  18.1547  18.1763
 PRANDTL NUMBER    0.6790   0.6788   0.6785   0.6783   0.6781   0.6779   0.6777   0.6775

 MOLE FRACTIONS

 *e-              0.00001  0.00001  0.00001  0.00001  0.00001  0.00001  0.00001  0.00001
 *H               0.97752  0.97794  0.97836  0.97876  0.97916  0.97955  0.97993  0.98030
 *H+              0.00001  0.00001  0.00001  0.00001  0.00001  0.00001  0.00001  0.00001
 *H2              0.02247  0.02204  0.02163  0.02122  0.02082  0.02044  0.02006  0.01968

  * THERMODYNAMIC PROPERTIES FITTED TO 20000.K

 NOTE. WEIGHT FRACTION OF FUEL IN TOTAL FUELS AND OF OXIDANT IN TOTAL OXIDANTS









               THERMODYNAMIC EQUILIBRIUM PROPERTIES AT ASSIGNED

                           TEMPERATURE AND PRESSURE

 CASE =                

             REACTANT                    WT FRACTION      ENERGY      TEMP
                                          (SEE NOTE)     KJ/KG-MOL      K  
             H2                           1.0000000         0.000      0.000

 O/F=    0.00000  %FUEL=100.000000  R,EQ.RATIO= 0.000000  PHI,EQ.RATIO= 0.000000

 THERMODYNAMIC PROPERTIES

 P, BAR            1.8000   1.8000   1.8000   2.0000   2.0000   2.0000   2.0000   2.0000
 T, K             5370.00  5380.00  5390.00  5250.00  5260.00  5270.00  5280.00  5290.00
 RHO, KG/CU M    4.1419-3 4.1328-3 4.1237-3 4.7420-3 4.7306-3 4.7193-3 4.7082-3 4.6971-3
 H, KJ/KG        312146.5 312511.3 312872.9 306364.7 306794.2 307219.1 307639.4 308055.4
 U, KJ/KG        268688.5 268957.2 269222.8 264188.3 264516.4 264840.3 265160.0 265475.7
 G, KJ/KG       -585290.3-586961.8-588634.1-560837.9-562490.2-564143.2-565797.0-567451.7
 S, KJ/(KG)(K)   167.1204 167.1883 167.2555 165.1815 165.2632 165.3439 165.4236 165.5023

 M, (1/n)           1.027    1.027    1.027    1.035    1.034    1.034    1.033    1.033
 (dLV/dLP)t      -1.01824 -1.01792 -1.01761 -1.02476 -1.02432 -1.02390 -1.02348 -1.02307
 (dLV/dLT)p        1.1900   1.1863   1.1828   1.2637   1.2586   1.2536   1.2487   1.2439
 Cp, KJ/(KG)(K)   36.6475  36.3176  35.9950  43.1828  42.7161  42.2595  41.8128  41.3757
 GAMMAs            1.4174   1.4200   1.4227   1.3742   1.3769   1.3796   1.3822   1.3849
 SON VEL,M/SEC     7848.3   7864.4   7880.5   7613.2   7629.7   7646.2   7662.6   7679.1

 TRANSPORT PROPERTIES (GASES ONLY)
   CONDUCTIVITY IN UNITS OF MILLIWATTS/(CM)(K)

 VISC,MILLIPOISE  0.59785  0.59839  0.59894  0.59472  0.59512  0.59553  0.59595  0.59638

  WITH EQUILIBRIUM REACTIONS

 Cp, KJ/(KG)(K)   36.6475  36.3176  35.9950  43.1828  42.7161  42.2595  41.8128  41.3757
 CONDUCTIVITY     35.5665  35.2511  34.9430  42.1679  41.7138  41.2698  40.8356  40.4111
 PRANDTL NUMBER    0.6160   0.6165   0.6170   0.6090   0.6094   0.6098   0.6102   0.6106

  WITH FROZEN REACTIONS

 Cp, KJ/(KG)(K)   20.6180  20.6184  20.6187  20.6120  20.6125  20.6131  20.6136  20.6141
 CONDUCTIVITY     18.1980  18.2198  18.2418  17.9973  18.0166  18.0360  18.0556  18.0754
 PRANDTL NUMBER    0.6774   0.6772   0.6770   0.6811   0.6809   0.6806   0.6804   0.6801

 MOLE FRACTIONS

 *e-              0.00001  0.00001  0.00001  0.00001  0.00001  0.00001  0.00001  0.00001
 *H               0.98066  0.98102  0.98137  0.97317  0.97368  0.97418  0.97467  0.97514
 *H+              0.00001  0.00001  0.00001  0.00001  0.00001  0.00001  0.00001  0.00001
 *H2              0.01932  0.01896  0.01861  0.02682  0.02631  0.02581  0.02532  0.02484

  * THERMODYNAMIC PROPERTIES FITTED TO 20000.K

 NOTE. WEIGHT FRACTION OF FUEL IN TOTAL FUELS AND OF OXIDANT IN TOTAL OXIDANTS









               THERMODYNAMIC EQUILIBRIUM PROPERTIES AT ASSIGNED

                           TEMPERATURE AND PRESSURE

 CASE =                

             REACTANT                    WT FRACTION      ENERGY      TEMP
                                          (SEE NOTE)     KJ/KG-MOL      K  
             H2                           1.0000000         0.000      0.000

 O/F=    0.00000  %FUEL=100.000000  R,EQ.RATIO= 0.000000  PHI,EQ.RATIO= 0.000000

 THERMODYNAMIC PROPERTIES

 P, BAR            2.0000   2.0000   2.0000   2.0000   2.0000   2.0000   2.0000   2.0000
 T, K             5300.00  5310.00  5320.00  5330.00  5340.00  5350.00  5360.00  5370.00
 RHO, KG/CU M    4.6861-3 4.6752-3 4.6643-3 4.6536-3 4.6429-3 4.6324-3 4.6219-3 4.6114-3
 H, KJ/KG        308467.0 308874.3 309277.6 309676.8 310072.0 310463.4 310851.0 311234.8
 U, KJ/KG        265787.3 266095.1 266399.0 266699.2 266995.8 267288.8 267578.3 267864.4
 G, KJ/KG       -569107.1-570763.3-572420.2-574077.9-575736.4-577395.5-579055.4-580716.1
 S, KJ/(KG)(K)   165.5800 165.6568 165.7327 165.8076 165.8817 165.9549 166.0273 166.0989

 M, (1/n)           1.033    1.032    1.032    1.031    1.031    1.030    1.030    1.029
 (dLV/dLP)t      -1.02267 -1.02227 -1.02189 -1.02151 -1.02113 -1.02077 -1.02041 -1.02006
 (dLV/dLT)p        1.2392   1.2346   1.2301   1.2257   1.2213   1.2171   1.2130   1.2089
 Cp, KJ/(KG)(K)   40.9481  40.5298  40.1206  39.7202  39.3287  38.9456  38.5709  38.2044
 GAMMAs            1.3876   1.3902   1.3929   1.3956   1.3982   1.4009   1.4036   1.4063
 SON VEL,M/SEC     7695.5   7711.9   7728.2   7744.6   7760.9   7777.2   7793.4   7809.6

 TRANSPORT PROPERTIES (GASES ONLY)
   CONDUCTIVITY IN UNITS OF MILLIWATTS/(CM)(K)

 VISC,MILLIPOISE  0.59682  0.59727  0.59773  0.59820  0.59868  0.59916  0.59966  0.60016

  WITH EQUILIBRIUM REACTIONS

 Cp, KJ/(KG)(K)   40.9481  40.5298  40.1206  39.7202  39.3287  38.9456  38.5709  38.2044
 CONDUCTIVITY     39.9959  39.5901  39.1932  38.8053  38.4261  38.0554  37.6930  37.3388
 PRANDTL NUMBER    0.6110   0.6115   0.6119   0.6123   0.6127   0.6132   0.6136   0.6141

  WITH FROZEN REACTIONS

 Cp, KJ/(KG)(K)   20.6146  20.6150  20.6155  20.6159  20.6164  20.6168  20.6172  20.6175
 CONDUCTIVITY     18.0954  18.1155  18.1358  18.1563  18.1769  18.1977  18.2186  18.2397
 PRANDTL NUMBER    0.6799   0.6797   0.6795   0.6792   0.6790   0.6788   0.6786   0.6784

 MOLE FRACTIONS

 *e-              0.00001  0.00001  0.00001  0.00001  0.00001  0.00001  0.00001  0.00001
 *H               0.97561  0.97607  0.97651  0.97695  0.97738  0.97780  0.97821  0.97861
 *H+              0.00001  0.00001  0.00001  0.00001  0.00001  0.00001  0.00001  0.00001
 *H2              0.02438  0.02392  0.02347  0.02303  0.02261  0.02219  0.02178  0.02138

  * THERMODYNAMIC PROPERTIES FITTED TO 20000.K

 NOTE. WEIGHT FRACTION OF FUEL IN TOTAL FUELS AND OF OXIDANT IN TOTAL OXIDANTS









               THERMODYNAMIC EQUILIBRIUM PROPERTIES AT ASSIGNED

                           TEMPERATURE AND PRESSURE

 CASE =                

             REACTANT                    WT FRACTION      ENERGY      TEMP
                                          (SEE NOTE)     KJ/KG-MOL      K  
             H2                           1.0000000         0.000      0.000

 O/F=    0.00000  %FUEL=100.000000  R,EQ.RATIO= 0.000000  PHI,EQ.RATIO= 0.000000

 THERMODYNAMIC PROPERTIES

 P, BAR            2.0000   2.0000   2.2500   2.2500   2.2500   2.2500   2.2500   2.2500
 T, K             5380.00  5390.00  5250.00  5260.00  5270.00  5280.00  5290.00  5300.00
 RHO, KG/CU M    4.6011-3 4.5908-3 5.3511-3 5.3380-3 5.3250-3 5.3121-3 5.2994-3 5.2867-3
 H, KJ/KG        311615.1 311991.8 304987.8 305440.5 305888.1 306330.9 306768.8 307202.1
 U, KJ/KG        268147.1 268426.6 262940.6 263290.0 263634.8 263975.0 264310.8 264642.3
 G, KJ/KG       -582377.4-584039.5-555877.7-557517.9-559159.0-560800.8-562443.5-564087.1
 S, KJ/(KG)(K)   166.1696 166.2396 163.9744 164.0605 164.1456 164.2295 164.3124 164.3942

 M, (1/n)           1.029    1.029    1.038    1.038    1.037    1.036    1.036    1.035
 (dLV/dLP)t      -1.01971 -1.01937 -1.02741 -1.02694 -1.02647 -1.02602 -1.02557 -1.02513
 (dLV/dLT)p        1.2049   1.2010   1.2919   1.2864   1.2809   1.2756   1.2703   1.2652
 Cp, KJ/(KG)(K)   37.8460  37.4954  45.5223  45.0154  44.5190  44.0330  43.5573  43.0916
 GAMMAs            1.4089   1.4116   1.3628   1.3654   1.3680   1.3706   1.3732   1.3758
 SON VEL,M/SEC     7825.8   7841.9   7569.9   7586.4   7602.8   7619.3   7635.7   7652.0

 TRANSPORT PROPERTIES (GASES ONLY)
   CONDUCTIVITY IN UNITS OF MILLIWATTS/(CM)(K)

 VISC,MILLIPOISE  0.60067  0.60119  0.59810  0.59845  0.59882  0.59919  0.59957  0.59997

  WITH EQUILIBRIUM REACTIONS

 Cp, KJ/(KG)(K)   37.8460  37.4954  45.5223  45.0154  44.5190  44.0330  43.5573  43.0916
 CONDUCTIVITY     36.9926  36.6543  44.8212  44.3230  43.8354  43.3583  42.8915  42.4347
 PRANDTL NUMBER    0.6145   0.6150   0.6075   0.6078   0.6082   0.6085   0.6089   0.6093

  WITH FROZEN REACTIONS

 Cp, KJ/(KG)(K)   20.6179  20.6182  20.6108  20.6114  20.6120  20.6125  20.6131  20.6136
 CONDUCTIVITY     18.2609  18.2823  18.0585  18.0769  18.0954  18.1142  18.1331  18.1523
 PRANDTL NUMBER    0.6782   0.6780   0.6826   0.6824   0.6821   0.6818   0.6816   0.6813

 MOLE FRACTIONS

 *e-              0.00001  0.00001  0.00001  0.00001  0.00001  0.00001  0.00001  0.00001
 *H               0.97900  0.97939  0.97002  0.97058  0.97114  0.97168  0.97221  0.97273
 *H+              0.00001  0.00001  0.00001  0.00001  0.00001  0.00001  0.00001  0.00001
 *H2              0.02098  0.02060  0.02997  0.02941  0.02885  0.02831  0.02778  0.02726

  * THERMODYNAMIC PROPERTIES FITTED TO 20000.K

 NOTE. WEIGHT FRACTION OF FUEL IN TOTAL FUELS AND OF OXIDANT IN TOTAL OXIDANTS









               THERMODYNAMIC EQUILIBRIUM PROPERTIES AT ASSIGNED

                           TEMPERATURE AND PRESSURE

 CASE =                

             REACTANT                    WT FRACTION      ENERGY      TEMP
                                          (SEE NOTE)     KJ/KG-MOL      K  
             H2                           1.0000000         0.000      0.000

 O/F=    0.00000  %FUEL=100.000000  R,EQ.RATIO= 0.000000  PHI,EQ.RATIO= 0.000000

 THERMODYNAMIC PROPERTIES

 P, BAR            2.2500   2.2500   2.2500   2.2500   2.2500   2.2500   2.2500   2.2500
 T, K             5310.00  5320.00  5330.00  5340.00  5350.00  5360.00  5370.00  5380.00
 RHO, KG/CU M    5.2741-3 5.2616-3 5.2493-3 5.2370-3 5.2249-3 5.2128-3 5.2008-3 5.1889-3
 H, KJ/KG        307630.7 308054.8 308474.5 308889.9 309301.0 309708.1 310111.0 310510.0
 U, KJ/KG        264969.5 265292.6 265611.5 265926.5 266237.6 266544.9 266848.5 267148.4
 G, KJ/KG       -565731.4-567376.6-569022.5-570669.2-572316.7-573965.0-575614.0-577263.8
 S, KJ/(KG)(K)   164.4750 164.5548 164.6336 164.7114 164.7884 164.8644 164.9395 165.0137

 M, (1/n)           1.035    1.034    1.034    1.033    1.033    1.032    1.032    1.032
 (dLV/dLP)t      -1.02470 -1.02428 -1.02386 -1.02346 -1.02305 -1.02266 -1.02228 -1.02190
 (dLV/dLT)p        1.2601   1.2552   1.2504   1.2456   1.2410   1.2365   1.2320   1.2276
 Cp, KJ/(KG)(K)   42.6357  42.1895  41.7527  41.3252  40.9068  40.4973  40.0966  39.7044
 GAMMAs            1.3784   1.3810   1.3836   1.3862   1.3889   1.3915   1.3941   1.3967
 SON VEL,M/SEC     7668.4   7684.8   7701.1   7717.4   7733.6   7749.9   7766.1   7782.3

 TRANSPORT PROPERTIES (GASES ONLY)
   CONDUCTIVITY IN UNITS OF MILLIWATTS/(CM)(K)

 VISC,MILLIPOISE  0.60037  0.60079  0.60121  0.60164  0.60209  0.60254  0.60300  0.60347

  WITH EQUILIBRIUM REACTIONS

 Cp, KJ/(KG)(K)   42.6357  42.1895  41.7527  41.3252  40.9068  40.4973  40.0966  39.7044
 CONDUCTIVITY     41.9878  41.5506  41.1229  40.7045  40.2953  39.8949  39.5034  39.1205
 PRANDTL NUMBER    0.6096   0.6100   0.6104   0.6108   0.6112   0.6116   0.6121   0.6125

  WITH FROZEN REACTIONS

 Cp, KJ/(KG)(K)   20.6142  20.6147  20.6151  20.6156  20.6161  20.6165  20.6169  20.6173
 CONDUCTIVITY     18.1716  18.1911  18.2107  18.2306  18.2506  18.2707  18.2911  18.3116
 PRANDTL NUMBER    0.6811   0.6808   0.6806   0.6804   0.6801   0.6799   0.6797   0.6795

 MOLE FRACTIONS

 *e-              0.00001  0.00001  0.00001  0.00001  0.00001  0.00001  0.00001  0.00001
 *H               0.97323  0.97373  0.97422  0.97469  0.97516  0.97562  0.97606  0.97650
 *H+              0.00001  0.00001  0.00001  0.00001  0.00001  0.00001  0.00001  0.00001
 *H2              0.02675  0.02626  0.02577  0.02529  0.02483  0.02437  0.02392  0.02349

  * THERMODYNAMIC PROPERTIES FITTED TO 20000.K

 NOTE. WEIGHT FRACTION OF FUEL IN TOTAL FUELS AND OF OXIDANT IN TOTAL OXIDANTS









               THERMODYNAMIC EQUILIBRIUM PROPERTIES AT ASSIGNED

                           TEMPERATURE AND PRESSURE

 CASE =                

             REACTANT                    WT FRACTION      ENERGY      TEMP
                                          (SEE NOTE)     KJ/KG-MOL      K  
             H2                           1.0000000         0.000      0.000

 O/F=    0.00000  %FUEL=100.000000  R,EQ.RATIO= 0.000000  PHI,EQ.RATIO= 0.000000

 THERMODYNAMIC PROPERTIES

 P, BAR            2.2500
 T, K             5390.00
 RHO, KG/CU M    5.1771-3
 H, KJ/KG        310905.1
 U, KJ/KG        267444.7
 G, KJ/KG       -578914.3
 S, KJ/(KG)(K)   165.0871

 M, (1/n)           1.031
 (dLV/dLP)t      -1.02153
 (dLV/dLT)p        1.2234
 Cp, KJ/(KG)(K)   39.3206
 GAMMAs            1.3993
 SON VEL,M/SEC     7798.4

 TRANSPORT PROPERTIES (GASES ONLY)
   CONDUCTIVITY IN UNITS OF MILLIWATTS/(CM)(K)

 VISC,MILLIPOISE  0.60394

  WITH EQUILIBRIUM REACTIONS

 Cp, KJ/(KG)(K)   39.3206
 CONDUCTIVITY     38.7460
 PRANDTL NUMBER    0.6129

  WITH FROZEN REACTIONS

 Cp, KJ/(KG)(K)   20.6177
 CONDUCTIVITY     18.3322
 PRANDTL NUMBER    0.6792

 MOLE FRACTIONS

 *e-              0.00001
 *H               0.97693
 *H+              0.00001
 *H2              0.02306

  * THERMODYNAMIC PROPERTIES FITTED TO 20000.K

 NOTE. WEIGHT FRACTION OF FUEL IN TOTAL FUELS AND OF OXIDANT IN TOTAL OXIDANTS



  
