
 *******************************************************************************

         NASA-GLENN CHEMICAL EQUILIBRIUM PROGRAM CEA2, MAY 21, 2004
                   BY  BONNIE MCBRIDE AND SANFORD GORDON
      REFS: NASA RP-1311, PART I, 1994 AND NASA RP-1311, PART II, 1996

 *******************************************************************************



  prob tp ions
  p,bar= 0.0049,0.0054,0.006,0.0067,0.0074,0.00825,0.0091,0.01,0.011,0.012,0.0132
 ,0.0148,0.0165,0.018,0.02
  t,k= 7200,7210,7220,7230,7240,7250,7260,7270,7280,7290,7300,7310,7320,7330,7340
  
  reac
  na H2                wt%=100.0000
  
  output short
  output siunits
  output transport
  
 end





               THERMODYNAMIC EQUILIBRIUM PROPERTIES AT ASSIGNED

                           TEMPERATURE AND PRESSURE

 CASE =                

             REACTANT                    WT FRACTION      ENERGY      TEMP
                                          (SEE NOTE)     KJ/KG-MOL      K  
             H2                           1.0000000         0.000      0.000

 O/F=    0.00000  %FUEL=100.000000  R,EQ.RATIO= 0.000000  PHI,EQ.RATIO= 0.000000

 THERMODYNAMIC PROPERTIES

 P, BAR           0.00490  0.00490  0.00490  0.00490  0.00490  0.00490  0.00490  0.00490
 T, K             7200.00  7210.00  7220.00  7230.00  7240.00  7250.00  7260.00  7270.00
 RHO, KG/CU M    8.1724-6 8.1597-6 8.1471-6 8.1345-6 8.1219-6 8.1093-6 8.0967-6 8.0842-6
 H, KJ/KG        372411.4 372855.4 373302.9 373753.9 374208.5 374666.6 375128.4 375593.8
 U, KJ/KG        312453.3 312804.4 313158.8 313516.5 313877.6 314242.1 314610.1 314981.5
 G, KJ/KG       -1250662.-1252917.-1255172.-1257428.-1259684.-1261941.-1264199.-1266457.
 S, KJ/(KG)(K)   225.4269 225.4885 225.5506 225.6130 225.6758 225.7390 225.8027 225.8667

 M, (1/n)           0.998    0.998    0.998    0.998    0.998    0.998    0.997    0.997
 (dLV/dLP)t      -1.00472 -1.00480 -1.00488 -1.00496 -1.00504 -1.00513 -1.00521 -1.00530
 (dLV/dLT)p        1.1151   1.1169   1.1188   1.1206   1.1225   1.1244   1.1263   1.1282
 Cp, KJ/(KG)(K)   44.2336  44.5776  44.9256  45.2776  45.6337  45.9939  46.3583  46.7268
 GAMMAs            1.2977   1.2958   1.2940   1.2922   1.2904   1.2886   1.2868   1.2851
 SON VEL,M/SEC     8820.8   8821.4   8821.9   8822.6   8823.3   8824.0   8824.7   8825.5

 TRANSPORT PROPERTIES (GASES ONLY)
   CONDUCTIVITY IN UNITS OF MILLIWATTS/(CM)(K)

 VISC,MILLIPOISE  0.68246  0.68226  0.68204  0.68181  0.68156  0.68129  0.68101  0.68072

  WITH EQUILIBRIUM REACTIONS

 Cp, KJ/(KG)(K)   44.2336  44.5776  44.9256  45.2776  45.6337  45.9939  46.3583  46.7268
 CONDUCTIVITY     26.0378  26.1025  26.1676  26.2330  26.2987  26.3648  26.4312  26.4980
 PRANDTL NUMBER    1.1594   1.1651   1.1710   1.1768   1.1826   1.1885   1.1944   1.2004

  WITH FROZEN REACTIONS

 Cp, KJ/(KG)(K)   20.8242  20.8278  20.8314  20.8351  20.8388  20.8426  20.8464  20.8503
 CONDUCTIVITY     21.6430  21.6409  21.6383  21.6352  21.6316  21.6275  21.6229  21.6177
 PRANDTL NUMBER    0.6566   0.6566   0.6566   0.6566   0.6566   0.6566   0.6566   0.6565

 MOLE FRACTIONS

 *e-              0.00943  0.00959  0.00975  0.00992  0.01008  0.01025  0.01042  0.01059
 *H               0.98114  0.98082  0.98049  0.98017  0.97983  0.97950  0.97915  0.97881
 *H+              0.00943  0.00959  0.00975  0.00992  0.01008  0.01025  0.01042  0.01059

  * THERMODYNAMIC PROPERTIES FITTED TO 20000.K

 NOTE. WEIGHT FRACTION OF FUEL IN TOTAL FUELS AND OF OXIDANT IN TOTAL OXIDANTS









               THERMODYNAMIC EQUILIBRIUM PROPERTIES AT ASSIGNED

                           TEMPERATURE AND PRESSURE

 CASE =                

             REACTANT                    WT FRACTION      ENERGY      TEMP
                                          (SEE NOTE)     KJ/KG-MOL      K  
             H2                           1.0000000         0.000      0.000

 O/F=    0.00000  %FUEL=100.000000  R,EQ.RATIO= 0.000000  PHI,EQ.RATIO= 0.000000

 THERMODYNAMIC PROPERTIES

 P, BAR           0.00490  0.00490  0.00490  0.00490  0.00490  0.00490  0.00490  0.00540
 T, K             7280.00  7290.00  7300.00  7310.00  7320.00  7330.00  7340.00  7200.00
 RHO, KG/CU M    8.0716-6 8.0591-6 8.0466-6 8.0341-6 8.0216-6 8.0092-6 7.9967-6 9.0103-6
 H, KJ/KG        376062.9 376535.8 377012.5 377493.0 377977.4 378465.7 378957.9 371756.5
 U, KJ/KG        315356.5 315735.0 316117.2 316503.0 316892.5 317285.7 317682.7 311825.3
 G, KJ/KG       -1268716.-1270976.-1273236.-1275497.-1277759.-1280021.-1282284.-1244838.
 S, KJ/(KG)(K)   225.9312 225.9961 226.0615 226.1273 226.1935 226.2601 226.3273 224.5270

 M, (1/n)           0.997    0.997    0.997    0.997    0.996    0.996    0.996    0.999
 (dLV/dLP)t      -1.00539 -1.00548 -1.00557 -1.00566 -1.00575 -1.00585 -1.00594 -1.00450
 (dLV/dLT)p        1.1302   1.1322   1.1342   1.1362   1.1383   1.1404   1.1425   1.1097
 Cp, KJ/(KG)(K)   47.0996  47.4766  47.8579  48.2435  48.6334  49.0278  49.4266  43.1148
 GAMMAs            1.2833   1.2816   1.2799   1.2782   1.2765   1.2748   1.2731   1.3042
 SON VEL,M/SEC     8826.4   8827.3   8828.2   8829.2   8830.2   8831.3   8832.4   8841.0

 TRANSPORT PROPERTIES (GASES ONLY)
   CONDUCTIVITY IN UNITS OF MILLIWATTS/(CM)(K)

 VISC,MILLIPOISE  0.68040  0.68007  0.67972  0.67936  0.67898  0.67858  0.67816  0.68544

  WITH EQUILIBRIUM REACTIONS

 Cp, KJ/(KG)(K)   47.0996  47.4766  47.8579  48.2435  48.6334  49.0278  49.4266  43.1148
 CONDUCTIVITY     26.5651  26.6325  26.7003  26.7685  26.8370  26.9059  26.9752  25.9165
 PRANDTL NUMBER    1.2063   1.2123   1.2183   1.2244   1.2304   1.2365   1.2426   1.1403

  WITH FROZEN REACTIONS

 Cp, KJ/(KG)(K)   20.8542  20.8581  20.8621  20.8662  20.8703  20.8745  20.8787  20.8149
 CONDUCTIVITY     21.6121  21.6059  21.5992  21.5920  21.5843  21.5760  21.5672  21.7278
 PRANDTL NUMBER    0.6565   0.6565   0.6565   0.6565   0.6565   0.6565   0.6565   0.6566

 MOLE FRACTIONS

 *e-              0.01077  0.01095  0.01113  0.01131  0.01150  0.01169  0.01188  0.00899
 *H               0.97846  0.97810  0.97774  0.97737  0.97700  0.97663  0.97625  0.98202
 *H+              0.01077  0.01095  0.01113  0.01131  0.01150  0.01169  0.01188  0.00899

  * THERMODYNAMIC PROPERTIES FITTED TO 20000.K

 NOTE. WEIGHT FRACTION OF FUEL IN TOTAL FUELS AND OF OXIDANT IN TOTAL OXIDANTS









               THERMODYNAMIC EQUILIBRIUM PROPERTIES AT ASSIGNED

                           TEMPERATURE AND PRESSURE

 CASE =                

             REACTANT                    WT FRACTION      ENERGY      TEMP
                                          (SEE NOTE)     KJ/KG-MOL      K  
             H2                           1.0000000         0.000      0.000

 O/F=    0.00000  %FUEL=100.000000  R,EQ.RATIO= 0.000000  PHI,EQ.RATIO= 0.000000

 THERMODYNAMIC PROPERTIES

 P, BAR           0.00540  0.00540  0.00540  0.00540  0.00540  0.00540  0.00540  0.00540
 T, K             7210.00  7220.00  7230.00  7240.00  7250.00  7260.00  7270.00  7280.00
 RHO, KG/CU M    8.9964-6 8.9826-6 8.9687-6 8.9549-6 8.9411-6 8.9273-6 8.9136-6 8.8998-6
 H, KJ/KG        372189.3 372625.4 373064.8 373507.6 373953.8 374403.5 374856.6 375313.3
 U, KJ/KG        312165.6 312509.1 312855.7 313205.6 313558.7 313915.1 314274.8 314637.9
 G, KJ/KG       -1247083.-1249330.-1251576.-1253824.-1256072.-1258320.-1260570.-1262819.
 S, KJ/(KG)(K)   224.5871 224.6475 224.7083 224.7695 224.8311 224.8931 224.9555 225.0182

 M, (1/n)           0.999    0.999    0.998    0.998    0.998    0.998    0.998    0.998
 (dLV/dLP)t      -1.00457 -1.00465 -1.00473 -1.00481 -1.00489 -1.00497 -1.00505 -1.00514
 (dLV/dLT)p        1.1115   1.1132   1.1150   1.1167   1.1185   1.1204   1.1222   1.1241
 Cp, KJ/(KG)(K)   43.4425  43.7740  44.1093  44.4486  44.7917  45.1388  45.4899  45.8450
 GAMMAs            1.3024   1.3005   1.2987   1.2968   1.2950   1.2932   1.2914   1.2896
 SON VEL,M/SEC     8841.5   8842.0   8842.5   8843.1   8843.7   8844.4   8845.1   8845.8

 TRANSPORT PROPERTIES (GASES ONLY)
   CONDUCTIVITY IN UNITS OF MILLIWATTS/(CM)(K)

 VISC,MILLIPOISE  0.68529  0.68512  0.68494  0.68474  0.68452  0.68429  0.68404  0.68378

  WITH EQUILIBRIUM REACTIONS

 Cp, KJ/(KG)(K)   43.4425  43.7740  44.1093  44.4486  44.7917  45.1388  45.4899  45.8450
 CONDUCTIVITY     25.9796  26.0431  26.1068  26.1709  26.2352  26.2999  26.3649  26.4303
 PRANDTL NUMBER    1.1459   1.1516   1.1572   1.1630   1.1687   1.1745   1.1802   1.1861

  WITH FROZEN REACTIONS

 Cp, KJ/(KG)(K)   20.8183  20.8218  20.8253  20.8289  20.8325  20.8361  20.8398  20.8435
 CONDUCTIVITY     21.7272  21.7261  21.7245  21.7225  21.7199  21.7169  21.7133  21.7093
 PRANDTL NUMBER    0.6566   0.6566   0.6566   0.6566   0.6566   0.6565   0.6565   0.6565

 MOLE FRACTIONS

 *e-              0.00914  0.00929  0.00945  0.00961  0.00977  0.00993  0.01010  0.01026
 *H               0.98172  0.98141  0.98110  0.98078  0.98046  0.98013  0.97980  0.97947
 *H+              0.00914  0.00929  0.00945  0.00961  0.00977  0.00993  0.01010  0.01026

  * THERMODYNAMIC PROPERTIES FITTED TO 20000.K

 NOTE. WEIGHT FRACTION OF FUEL IN TOTAL FUELS AND OF OXIDANT IN TOTAL OXIDANTS









               THERMODYNAMIC EQUILIBRIUM PROPERTIES AT ASSIGNED

                           TEMPERATURE AND PRESSURE

 CASE =                

             REACTANT                    WT FRACTION      ENERGY      TEMP
                                          (SEE NOTE)     KJ/KG-MOL      K  
             H2                           1.0000000         0.000      0.000

 O/F=    0.00000  %FUEL=100.000000  R,EQ.RATIO= 0.000000  PHI,EQ.RATIO= 0.000000

 THERMODYNAMIC PROPERTIES

 P, BAR           0.00540  0.00540  0.00540  0.00540  0.00540  0.00540  0.00600  0.00600
 T, K             7290.00  7300.00  7310.00  7320.00  7330.00  7340.00  7200.00  7210.00
 RHO, KG/CU M    8.8861-6 8.8724-6 8.8587-6 8.8450-6 8.8313-6 8.8177-6 1.0016-5 1.0001-5
 H, KJ/KG        375773.5 376237.4 376704.9 377176.1 377651.0 378129.7 371081.5 371502.7
 U, KJ/KG        315004.3 315374.2 315747.6 316124.5 316505.0 316889.0 311177.9 311507.1
 G, KJ/KG       -1265070.-1267321.-1269573.-1271825.-1274078.-1276332.-1238525.-1240761.
 S, KJ/(KG)(K)   225.0814 225.1450 225.2090 225.2734 225.3383 225.4035 223.5564 223.6149

 M, (1/n)           0.997    0.997    0.997    0.997    0.997    0.997    0.999    0.999
 (dLV/dLP)t      -1.00522 -1.00531 -1.00539 -1.00548 -1.00557 -1.00566 -1.00427 -1.00434
 (dLV/dLT)p        1.1260   1.1279   1.1299   1.1318   1.1338   1.1358   1.1042   1.1058
 Cp, KJ/(KG)(K)   46.2042  46.5674  46.9348  47.3063  47.6820  48.0619  41.9615  42.2724
 GAMMAs            1.2879   1.2861   1.2844   1.2827   1.2810   1.2793   1.3114   1.3095
 SON VEL,M/SEC     8846.6   8847.4   8848.3   8849.2   8850.2   8851.2   8863.3   8863.7

 TRANSPORT PROPERTIES (GASES ONLY)
   CONDUCTIVITY IN UNITS OF MILLIWATTS/(CM)(K)

 VISC,MILLIPOISE  0.68350  0.68321  0.68290  0.68257  0.68222  0.68186  0.68854  0.68844

  WITH EQUILIBRIUM REACTIONS

 Cp, KJ/(KG)(K)   46.2042  46.5674  46.9348  47.3063  47.6820  48.0619  41.9615  42.2724
 CONDUCTIVITY     26.4959  26.5619  26.6283  26.6949  26.7619  26.8293  25.7915  25.8530
 PRANDTL NUMBER    1.1919   1.1978   1.2037   1.2096   1.2155   1.2215   1.1202   1.1257

  WITH FROZEN REACTIONS

 Cp, KJ/(KG)(K)   20.8473  20.8511  20.8550  20.8589  20.8629  20.8669  20.8053  20.8086
 CONDUCTIVITY     21.7048  21.6997  21.6942  21.6881  21.6815  21.6744  21.8154  21.8163
 PRANDTL NUMBER    0.6565   0.6565   0.6565   0.6565   0.6565   0.6565   0.6567   0.6566

 MOLE FRACTIONS

 *e-              0.01043  0.01061  0.01078  0.01096  0.01114  0.01132  0.00853  0.00867
 *H               0.97913  0.97878  0.97843  0.97808  0.97772  0.97736  0.98294  0.98265
 *H+              0.01043  0.01061  0.01078  0.01096  0.01114  0.01132  0.00853  0.00867

  * THERMODYNAMIC PROPERTIES FITTED TO 20000.K

 NOTE. WEIGHT FRACTION OF FUEL IN TOTAL FUELS AND OF OXIDANT IN TOTAL OXIDANTS









               THERMODYNAMIC EQUILIBRIUM PROPERTIES AT ASSIGNED

                           TEMPERATURE AND PRESSURE

 CASE =                

             REACTANT                    WT FRACTION      ENERGY      TEMP
                                          (SEE NOTE)     KJ/KG-MOL      K  
             H2                           1.0000000         0.000      0.000

 O/F=    0.00000  %FUEL=100.000000  R,EQ.RATIO= 0.000000  PHI,EQ.RATIO= 0.000000

 THERMODYNAMIC PROPERTIES

 P, BAR           0.00600  0.00600  0.00600  0.00600  0.00600  0.00600  0.00600  0.00600
 T, K             7220.00  7230.00  7240.00  7250.00  7260.00  7270.00  7280.00  7290.00
 RHO, KG/CU M    9.9854-6 9.9701-6 9.9548-6 9.9396-6 9.9243-6 9.9091-6 9.8939-6 9.8787-6
 H, KJ/KG        371927.0 372354.4 372785.1 373219.0 373656.1 374096.6 374540.4 374987.7
 U, KJ/KG        311839.3 312174.6 312512.8 312854.2 313198.6 313546.2 313897.0 314251.0
 G, KJ/KG       -1242997.-1245234.-1247472.-1249710.-1251949.-1254188.-1256428.-1258669.
 S, KJ/(KG)(K)   223.6737 223.7329 223.7924 223.8523 223.9125 223.9732 224.0342 224.0956

 M, (1/n)           0.999    0.999    0.999    0.999    0.998    0.998    0.998    0.998
 (dLV/dLP)t      -1.00441 -1.00449 -1.00456 -1.00464 -1.00472 -1.00480 -1.00488 -1.00496
 (dLV/dLT)p        1.1074   1.1091   1.1108   1.1125   1.1143   1.1160   1.1178   1.1196
 Cp, KJ/(KG)(K)   42.5869  42.9050  43.2269  43.5524  43.8817  44.2148  44.5517  44.8925
 GAMMAs            1.3076   1.3058   1.3039   1.3021   1.3002   1.2984   1.2966   1.2948
 SON VEL,M/SEC     8864.1   8864.6   8865.0   8865.6   8866.1   8866.7   8867.3   8868.0

 TRANSPORT PROPERTIES (GASES ONLY)
   CONDUCTIVITY IN UNITS OF MILLIWATTS/(CM)(K)

 VISC,MILLIPOISE  0.68832  0.68819  0.68804  0.68788  0.68770  0.68751  0.68730  0.68707

  WITH EQUILIBRIUM REACTIONS

 Cp, KJ/(KG)(K)   42.5869  42.9050  43.2269  43.5524  43.8817  44.2148  44.5517  44.8925
 CONDUCTIVITY     25.9148  25.9768  26.0392  26.1018  26.1647  26.2280  26.2915  26.3553
 PRANDTL NUMBER    1.1311   1.1367   1.1422   1.1478   1.1534   1.1590   1.1646   1.1703

  WITH FROZEN REACTIONS

 Cp, KJ/(KG)(K)   20.8119  20.8152  20.8186  20.8220  20.8255  20.8290  20.8326  20.8362
 CONDUCTIVITY     21.8168  21.8169  21.8164  21.8155  21.8141  21.8122  21.8099  21.8071
 PRANDTL NUMBER    0.6566   0.6566   0.6566   0.6566   0.6565   0.6565   0.6565   0.6565

 MOLE FRACTIONS

 *e-              0.00882  0.00897  0.00912  0.00927  0.00943  0.00958  0.00974  0.00990
 *H               0.98235  0.98206  0.98176  0.98145  0.98114  0.98083  0.98051  0.98019
 *H+              0.00882  0.00897  0.00912  0.00927  0.00943  0.00958  0.00974  0.00990

  * THERMODYNAMIC PROPERTIES FITTED TO 20000.K

 NOTE. WEIGHT FRACTION OF FUEL IN TOTAL FUELS AND OF OXIDANT IN TOTAL OXIDANTS









               THERMODYNAMIC EQUILIBRIUM PROPERTIES AT ASSIGNED

                           TEMPERATURE AND PRESSURE

 CASE =                

             REACTANT                    WT FRACTION      ENERGY      TEMP
                                          (SEE NOTE)     KJ/KG-MOL      K  
             H2                           1.0000000         0.000      0.000

 O/F=    0.00000  %FUEL=100.000000  R,EQ.RATIO= 0.000000  PHI,EQ.RATIO= 0.000000

 THERMODYNAMIC PROPERTIES

 P, BAR           0.00600  0.00600  0.00600  0.00600  0.00600  0.00670  0.00670  0.00670
 T, K             7300.00  7310.00  7320.00  7330.00  7340.00  7200.00  7210.00  7220.00
 RHO, KG/CU M    9.8636-6 9.8484-6 9.8333-6 9.8182-6 9.8031-6 1.1190-5 1.1173-5 1.1156-5
 H, KJ/KG        375438.3 375892.4 376350.0 376811.2 377275.9 370411.6 370821.2 371233.8
 U, KJ/KG        314608.3 314968.9 315332.8 315700.1 316070.8 310535.4 310853.6 311174.7
 G, KJ/KG       -1260910.-1263152.-1265395.-1267638.-1269882.-1231916.-1234142.-1236368.
 S, KJ/(KG)(K)   224.1573 224.2195 224.2821 224.3450 224.4084 222.5455 222.6024 222.6596

 M, (1/n)           0.998    0.998    0.997    0.997    0.997    1.000    1.000    1.000
 (dLV/dLP)t      -1.00504 -1.00512 -1.00520 -1.00529 -1.00538 -1.00404 -1.00411 -1.00418
 (dLV/dLT)p        1.1214   1.1233   1.1251   1.1270   1.1289   1.0986   1.1002   1.1017
 Cp, KJ/(KG)(K)   45.2371  45.5856  45.9381  46.2946  46.6550  40.8169  41.1111  41.4088
 GAMMAs            1.2930   1.2913   1.2895   1.2878   1.2860   1.3190   1.3171   1.3152
 SON VEL,M/SEC     8868.7   8869.5   8870.3   8871.1   8872.0   8887.0   8887.3   8887.6

 TRANSPORT PROPERTIES (GASES ONLY)
   CONDUCTIVITY IN UNITS OF MILLIWATTS/(CM)(K)

 VISC,MILLIPOISE  0.68683  0.68658  0.68630  0.68601  0.68571  0.69164  0.69159  0.69152

  WITH EQUILIBRIUM REACTIONS

 Cp, KJ/(KG)(K)   45.2371  45.5856  45.9381  46.2946  46.6550  40.8169  41.1111  41.4088
 CONDUCTIVITY     26.4195  26.4840  26.5487  26.6138  26.6792  25.6675  25.7273  25.7875
 PRANDTL NUMBER    1.1760   1.1818   1.1875   1.1933   1.1991   1.0999   1.1051   1.1104

  WITH FROZEN REACTIONS

 Cp, KJ/(KG)(K)   20.8398  20.8435  20.8472  20.8510  20.8548  20.7958  20.7989  20.8020
 CONDUCTIVITY     21.8038  21.7999  21.7956  21.7908  21.7855  21.9024  21.9050  21.9071
 PRANDTL NUMBER    0.6565   0.6565   0.6564   0.6564   0.6564   0.6567   0.6567   0.6566

 MOLE FRACTIONS

 *e-              0.01007  0.01023  0.01040  0.01057  0.01074  0.00808  0.00821  0.00835
 *H               0.97986  0.97953  0.97919  0.97885  0.97851  0.98384  0.98357  0.98329
 *H+              0.01007  0.01023  0.01040  0.01057  0.01074  0.00808  0.00821  0.00835
 *H2              0.00000  0.00000  0.00000  0.00000  0.00000  0.00001  0.00001  0.00001

  * THERMODYNAMIC PROPERTIES FITTED TO 20000.K

 NOTE. WEIGHT FRACTION OF FUEL IN TOTAL FUELS AND OF OXIDANT IN TOTAL OXIDANTS









               THERMODYNAMIC EQUILIBRIUM PROPERTIES AT ASSIGNED

                           TEMPERATURE AND PRESSURE

 CASE =                

             REACTANT                    WT FRACTION      ENERGY      TEMP
                                          (SEE NOTE)     KJ/KG-MOL      K  
             H2                           1.0000000         0.000      0.000

 O/F=    0.00000  %FUEL=100.000000  R,EQ.RATIO= 0.000000  PHI,EQ.RATIO= 0.000000

 THERMODYNAMIC PROPERTIES

 P, BAR           0.00670  0.00670  0.00670  0.00670  0.00670  0.00670  0.00670  0.00670
 T, K             7230.00  7240.00  7250.00  7260.00  7270.00  7280.00  7290.00  7300.00
 RHO, KG/CU M    1.1139-5 1.1122-5 1.1105-5 1.1088-5 1.1071-5 1.1054-5 1.1037-5 1.1020-5
 H, KJ/KG        371649.4 372068.0 372489.7 372914.5 373342.4 373773.5 374207.8 374645.3
 U, KJ/KG        311498.5 311825.3 312155.0 312487.6 312823.2 313161.8 313503.5 313848.2
 G, KJ/KG       -1238595.-1240823.-1243051.-1245279.-1247508.-1249738.-1251969.-1254200.
 S, KJ/(KG)(K)   222.7171 222.7749 222.8332 222.8917 222.9506 223.0099 223.0695 223.1294

 M, (1/n)           0.999    0.999    0.999    0.999    0.999    0.999    0.998    0.998
 (dLV/dLP)t      -1.00425 -1.00432 -1.00439 -1.00447 -1.00454 -1.00462 -1.00469 -1.00477
 (dLV/dLT)p        1.1033   1.1049   1.1065   1.1082   1.1099   1.1115   1.1132   1.1150
 Cp, KJ/(KG)(K)   41.7099  42.0145  42.3226  42.6342  42.9495  43.2683  43.5908  43.9170
 GAMMAs            1.3133   1.3114   1.3095   1.3077   1.3058   1.3040   1.3022   1.3004
 SON VEL,M/SEC     8888.0   8888.4   8888.8   8889.3   8889.8   8890.3   8890.9   8891.5

 TRANSPORT PROPERTIES (GASES ONLY)
   CONDUCTIVITY IN UNITS OF MILLIWATTS/(CM)(K)

 VISC,MILLIPOISE  0.69144  0.69134  0.69123  0.69111  0.69097  0.69082  0.69065  0.69046

  WITH EQUILIBRIUM REACTIONS

 Cp, KJ/(KG)(K)   41.7099  42.0145  42.3226  42.6342  42.9495  43.2683  43.5908  43.9170
 CONDUCTIVITY     25.8478  25.9085  25.9695  26.0307  26.0922  26.1539  26.2160  26.2783
 PRANDTL NUMBER    1.1158   1.1211   1.1265   1.1319   1.1374   1.1429   1.1484   1.1539

  WITH FROZEN REACTIONS

 Cp, KJ/(KG)(K)   20.8052  20.8084  20.8117  20.8150  20.8183  20.8217  20.8251  20.8285
 CONDUCTIVITY     21.9087  21.9099  21.9106  21.9109  21.9107  21.9101  21.9090  21.9074
 PRANDTL NUMBER    0.6566   0.6566   0.6566   0.6565   0.6565   0.6565   0.6565   0.6565

 MOLE FRACTIONS

 *e-              0.00849  0.00863  0.00878  0.00893  0.00907  0.00923  0.00938  0.00953
 *H               0.98301  0.98273  0.98244  0.98214  0.98185  0.98155  0.98124  0.98093
 *H+              0.00849  0.00863  0.00878  0.00893  0.00907  0.00922  0.00938  0.00953

  * THERMODYNAMIC PROPERTIES FITTED TO 20000.K

 NOTE. WEIGHT FRACTION OF FUEL IN TOTAL FUELS AND OF OXIDANT IN TOTAL OXIDANTS









               THERMODYNAMIC EQUILIBRIUM PROPERTIES AT ASSIGNED

                           TEMPERATURE AND PRESSURE

 CASE =                

             REACTANT                    WT FRACTION      ENERGY      TEMP
                                          (SEE NOTE)     KJ/KG-MOL      K  
             H2                           1.0000000         0.000      0.000

 O/F=    0.00000  %FUEL=100.000000  R,EQ.RATIO= 0.000000  PHI,EQ.RATIO= 0.000000

 THERMODYNAMIC PROPERTIES

 P, BAR           0.00670  0.00670  0.00670  0.00670  0.00740  0.00740  0.00740  0.00740
 T, K             7310.00  7320.00  7330.00  7340.00  7200.00  7210.00  7220.00  7230.00
 RHO, KG/CU M    1.1003-5 1.0987-5 1.0970-5 1.0953-5 1.2364-5 1.2345-5 1.2326-5 1.2307-5
 H, KJ/KG        375086.1 375530.2 375977.7 376428.6 369839.0 370238.8 370641.4 371046.9
 U, KJ/KG        314196.1 314547.1 314901.4 315258.8 309986.4 310295.2 310606.7 310920.8
 G, KJ/KG       -1256431.-1258663.-1260896.-1263130.-1225967.-1228184.-1230401.-1232619.
 S, KJ/(KG)(K)   223.1898 223.2505 223.3116 223.3731 221.6398 221.6953 221.7511 221.8072

 M, (1/n)           0.998    0.998    0.998    0.998    1.000    1.000    1.000    1.000
 (dLV/dLP)t      -1.00485 -1.00493 -1.00501 -1.00509 -1.00385 -1.00391 -1.00398 -1.00405
 (dLV/dLT)p        1.1167   1.1185   1.1203   1.1221   1.0939   1.0954   1.0968   1.0984
 Cp, KJ/(KG)(K)   44.2468  44.5804  44.9177  45.2588  39.8389  40.1189  40.4021  40.6886
 GAMMAs            1.2986   1.2968   1.2950   1.2933   1.3260   1.3240   1.3221   1.3202
 SON VEL,M/SEC     8892.1   8892.8   8893.5   8894.3   8908.6   8908.8   8909.1   8909.4

 TRANSPORT PROPERTIES (GASES ONLY)
   CONDUCTIVITY IN UNITS OF MILLIWATTS/(CM)(K)

 VISC,MILLIPOISE  0.69026  0.69005  0.68982  0.68957  0.69431  0.69430  0.69428  0.69424

  WITH EQUILIBRIUM REACTIONS

 Cp, KJ/(KG)(K)   44.2468  44.5804  44.9177  45.2588  39.8389  40.1189  40.4021  40.6886
 CONDUCTIVITY     26.3409  26.4039  26.4671  26.5306  25.5614  25.6199  25.6786  25.7376
 PRANDTL NUMBER    1.1595   1.1651   1.1707   1.1763   1.0821   1.0872   1.0924   1.0975

  WITH FROZEN REACTIONS

 Cp, KJ/(KG)(K)   20.8320  20.8356  20.8392  20.8428  20.7877  20.7906  20.7936  20.7967
 CONDUCTIVITY     21.9054  21.9028  21.8998  21.8963  21.9769  21.9808  21.9842  21.9873
 PRANDTL NUMBER    0.6564   0.6564   0.6564   0.6564   0.6567   0.6567   0.6567   0.6566

 MOLE FRACTIONS

 *e-              0.00969  0.00985  0.01001  0.01017  0.00769  0.00782  0.00795  0.00808
 *H               0.98062  0.98030  0.97998  0.97965  0.98462  0.98436  0.98410  0.98383
 *H+              0.00969  0.00985  0.01001  0.01017  0.00769  0.00782  0.00795  0.00808
 *H2              0.00000  0.00000  0.00000  0.00000  0.00001  0.00001  0.00001  0.00001

  * THERMODYNAMIC PROPERTIES FITTED TO 20000.K

 NOTE. WEIGHT FRACTION OF FUEL IN TOTAL FUELS AND OF OXIDANT IN TOTAL OXIDANTS









               THERMODYNAMIC EQUILIBRIUM PROPERTIES AT ASSIGNED

                           TEMPERATURE AND PRESSURE

 CASE =                

             REACTANT                    WT FRACTION      ENERGY      TEMP
                                          (SEE NOTE)     KJ/KG-MOL      K  
             H2                           1.0000000         0.000      0.000

 O/F=    0.00000  %FUEL=100.000000  R,EQ.RATIO= 0.000000  PHI,EQ.RATIO= 0.000000

 THERMODYNAMIC PROPERTIES

 P, BAR           0.00740  0.00740  0.00740  0.00740  0.00740  0.00740  0.00740  0.00740
 T, K             7240.00  7250.00  7260.00  7270.00  7280.00  7290.00  7300.00  7310.00
 RHO, KG/CU M    1.2289-5 1.2270-5 1.2252-5 1.2233-5 1.2214-5 1.2196-5 1.2177-5 1.2159-5
 H, KJ/KG        371455.2 371866.5 372280.7 372697.8 373118.0 373541.3 373967.6 374397.1
 U, KJ/KG        311237.8 311557.4 311880.0 312205.3 312533.5 312864.6 313198.7 313535.7
 G, KJ/KG       -1234837.-1237056.-1239276.-1241496.-1243717.-1245938.-1248160.-1250382.
 S, KJ/(KG)(K)   221.8636 221.9204 221.9775 222.0349 222.0927 222.1508 222.2092 222.2680

 M, (1/n)           1.000    1.000    0.999    0.999    0.999    0.999    0.999    0.999
 (dLV/dLP)t      -1.00411 -1.00418 -1.00425 -1.00432 -1.00440 -1.00447 -1.00454 -1.00462
 (dLV/dLT)p        1.0999   1.1014   1.1030   1.1046   1.1062   1.1078   1.1095   1.1111
 Cp, KJ/(KG)(K)   40.9785  41.2717  41.5682  41.8682  42.1716  42.4785  42.7888  43.1027
 GAMMAs            1.3183   1.3164   1.3145   1.3126   1.3107   1.3089   1.3071   1.3052
 SON VEL,M/SEC     8909.7   8910.0   8910.4   8910.8   8911.3   8911.8   8912.3   8912.9

 TRANSPORT PROPERTIES (GASES ONLY)
   CONDUCTIVITY IN UNITS OF MILLIWATTS/(CM)(K)

 VISC,MILLIPOISE  0.69419  0.69413  0.69405  0.69396  0.69385  0.69373  0.69359  0.69344

  WITH EQUILIBRIUM REACTIONS

 Cp, KJ/(KG)(K)   40.9785  41.2717  41.5682  41.8682  42.1716  42.4785  42.7888  43.1027
 CONDUCTIVITY     25.7969  25.8564  25.9161  25.9762  26.0364  26.0970  26.1578  26.2189
 PRANDTL NUMBER    1.1027   1.1080   1.1132   1.1185   1.1238   1.1292   1.1346   1.1400

  WITH FROZEN REACTIONS

 Cp, KJ/(KG)(K)   20.7997  20.8028  20.8060  20.8091  20.8124  20.8156  20.8189  20.8223
 CONDUCTIVITY     21.9899  21.9921  21.9938  21.9951  21.9959  21.9963  21.9963  21.9957
 PRANDTL NUMBER    0.6566   0.6566   0.6566   0.6565   0.6565   0.6565   0.6565   0.6564

 MOLE FRACTIONS

 *e-              0.00822  0.00836  0.00850  0.00864  0.00878  0.00893  0.00907  0.00922
 *H               0.98356  0.98328  0.98300  0.98272  0.98243  0.98214  0.98185  0.98155
 *H+              0.00822  0.00836  0.00850  0.00864  0.00878  0.00893  0.00907  0.00922
 *H2              0.00001  0.00001  0.00001  0.00001  0.00001  0.00001  0.00001  0.00001

  * THERMODYNAMIC PROPERTIES FITTED TO 20000.K

 NOTE. WEIGHT FRACTION OF FUEL IN TOTAL FUELS AND OF OXIDANT IN TOTAL OXIDANTS









               THERMODYNAMIC EQUILIBRIUM PROPERTIES AT ASSIGNED

                           TEMPERATURE AND PRESSURE

 CASE =                

             REACTANT                    WT FRACTION      ENERGY      TEMP
                                          (SEE NOTE)     KJ/KG-MOL      K  
             H2                           1.0000000         0.000      0.000

 O/F=    0.00000  %FUEL=100.000000  R,EQ.RATIO= 0.000000  PHI,EQ.RATIO= 0.000000

 THERMODYNAMIC PROPERTIES

 P, BAR           0.00740  0.00740  0.00740  0.00825  0.00825  0.00825  0.00825  0.00825
 T, K             7320.00  7330.00  7340.00  7200.00  7210.00  7220.00  7230.00  7240.00
 RHO, KG/CU M    1.2140-5 1.2122-5 1.2103-5 1.3789-5 1.3769-5 1.3748-5 1.3727-5 1.3706-5
 H, KJ/KG        374829.7 375265.5 375704.5 369244.3 369633.9 370026.1 370421.0 370818.6
 U, KJ/KG        313875.7 314218.8 314564.9 309416.0 309715.0 310016.6 310320.7 310627.4
 G, KJ/KG       -1252605.-1254828.-1257053.-1219461.-1221668.-1223875.-1226083.-1228291.
 S, KJ/(KG)(K)   222.3271 222.3866 222.4465 220.6535 220.7075 220.7619 220.8166 220.8715

 M, (1/n)           0.998    0.998    0.998    1.001    1.000    1.000    1.000    1.000
 (dLV/dLP)t      -1.00469 -1.00477 -1.00485 -1.00365 -1.00371 -1.00377 -1.00384 -1.00390
 (dLV/dLT)p        1.1128   1.1145   1.1162   1.0890   1.0904   1.0918   1.0932   1.0946
 Cp, KJ/(KG)(K)   43.4201  43.7411  44.0657  38.8230  39.0882  39.3564  39.6278  39.9023
 GAMMAs            1.3034   1.3016   1.2999   1.3336   1.3317   1.3297   1.3278   1.3258
 SON VEL,M/SEC     8913.4   8914.1   8914.7   8932.4   8932.6   8932.8   8933.0   8933.3

 TRANSPORT PROPERTIES (GASES ONLY)
   CONDUCTIVITY IN UNITS OF MILLIWATTS/(CM)(K)

 VISC,MILLIPOISE  0.69327  0.69309  0.69290  0.69710  0.69714  0.69716  0.69717  0.69717

  WITH EQUILIBRIUM REACTIONS

 Cp, KJ/(KG)(K)   43.4201  43.7411  44.0657  38.8230  39.0882  39.3564  39.6278  39.9023
 CONDUCTIVITY     26.2802  26.3418  26.4037  25.4512  25.5083  25.5656  25.6231  25.6809
 PRANDTL NUMBER    1.1454   1.1509   1.1564   1.0633   1.0683   1.0732   1.0782   1.0832

  WITH FROZEN REACTIONS

 Cp, KJ/(KG)(K)   20.8256  20.8291  20.8325  20.7792  20.7820  20.7849  20.7878  20.7907
 CONDUCTIVITY     21.9948  21.9933  21.9914  22.0542  22.0595  22.0645  22.0690  22.0731
 PRANDTL NUMBER    0.6564   0.6564   0.6564   0.6568   0.6568   0.6567   0.6567   0.6567

 MOLE FRACTIONS

 *e-              0.00938  0.00953  0.00969  0.00728  0.00741  0.00753  0.00766  0.00779
 *H               0.98124  0.98094  0.98062  0.98543  0.98518  0.98493  0.98468  0.98442
 *H+              0.00938  0.00953  0.00969  0.00728  0.00741  0.00753  0.00766  0.00779
 *H2              0.00000  0.00000  0.00000  0.00001  0.00001  0.00001  0.00001  0.00001

  * THERMODYNAMIC PROPERTIES FITTED TO 20000.K

 NOTE. WEIGHT FRACTION OF FUEL IN TOTAL FUELS AND OF OXIDANT IN TOTAL OXIDANTS









               THERMODYNAMIC EQUILIBRIUM PROPERTIES AT ASSIGNED

                           TEMPERATURE AND PRESSURE

 CASE =                

             REACTANT                    WT FRACTION      ENERGY      TEMP
                                          (SEE NOTE)     KJ/KG-MOL      K  
             H2                           1.0000000         0.000      0.000

 O/F=    0.00000  %FUEL=100.000000  R,EQ.RATIO= 0.000000  PHI,EQ.RATIO= 0.000000

 THERMODYNAMIC PROPERTIES

 P, BAR           0.00825  0.00825  0.00825  0.00825  0.00825  0.00825  0.00825  0.00825
 T, K             7250.00  7260.00  7270.00  7280.00  7290.00  7300.00  7310.00  7320.00
 RHO, KG/CU M    1.3686-5 1.3665-5 1.3644-5 1.3624-5 1.3603-5 1.3583-5 1.3562-5 1.3542-5
 H, KJ/KG        371219.1 371622.3 372028.3 372437.2 372848.9 373263.6 373681.3 374101.9
 U, KJ/KG        310936.7 311248.7 311563.4 311880.8 312201.0 312523.9 312849.6 313178.2
 G, KJ/KG       -1230500.-1232710.-1234920.-1237131.-1239342.-1241554.-1243766.-1245979.
 S, KJ/(KG)(K)   220.9268 220.9824 221.0383 221.0945 221.1510 221.2078 221.2650 221.3225

 M, (1/n)           1.000    1.000    1.000    1.000    0.999    0.999    0.999    0.999
 (dLV/dLP)t      -1.00397 -1.00403 -1.00410 -1.00417 -1.00424 -1.00430 -1.00438 -1.00445
 (dLV/dLT)p        1.0961   1.0976   1.0991   1.1006   1.1022   1.1037   1.1053   1.1069
 Cp, KJ/(KG)(K)   40.1800  40.4609  40.7450  41.0324  41.3231  41.6170  41.9143  42.2149
 GAMMAs            1.3239   1.3220   1.3201   1.3182   1.3164   1.3145   1.3126   1.3108
 SON VEL,M/SEC     8933.6   8933.9   8934.2   8934.6   8935.0   8935.4   8935.9   8936.4

 TRANSPORT PROPERTIES (GASES ONLY)
   CONDUCTIVITY IN UNITS OF MILLIWATTS/(CM)(K)

 VISC,MILLIPOISE  0.69716  0.69713  0.69708  0.69703  0.69695  0.69687  0.69677  0.69666

  WITH EQUILIBRIUM REACTIONS

 Cp, KJ/(KG)(K)   40.1800  40.4609  40.7450  41.0324  41.3231  41.6170  41.9143  42.2149
 CONDUCTIVITY     25.7389  25.7972  25.8557  25.9144  25.9734  26.0327  26.0921  26.1519
 PRANDTL NUMBER    1.0883   1.0934   1.0985   1.1037   1.1088   1.1140   1.1193   1.1246

  WITH FROZEN REACTIONS

 Cp, KJ/(KG)(K)   20.7936  20.7966  20.7996  20.8027  20.8058  20.8089  20.8121  20.8153
 CONDUCTIVITY     22.0768  22.0800  22.0829  22.0853  22.0872  22.0888  22.0899  22.0905
 PRANDTL NUMBER    0.6566   0.6566   0.6566   0.6565   0.6565   0.6565   0.6565   0.6564

 MOLE FRACTIONS

 *e-              0.00792  0.00805  0.00818  0.00832  0.00846  0.00860  0.00874  0.00888
 *H               0.98416  0.98389  0.98362  0.98335  0.98308  0.98280  0.98251  0.98223
 *H+              0.00792  0.00805  0.00818  0.00832  0.00846  0.00860  0.00874  0.00888
 *H2              0.00001  0.00001  0.00001  0.00001  0.00001  0.00001  0.00001  0.00001

  * THERMODYNAMIC PROPERTIES FITTED TO 20000.K

 NOTE. WEIGHT FRACTION OF FUEL IN TOTAL FUELS AND OF OXIDANT IN TOTAL OXIDANTS









               THERMODYNAMIC EQUILIBRIUM PROPERTIES AT ASSIGNED

                           TEMPERATURE AND PRESSURE

 CASE =                

             REACTANT                    WT FRACTION      ENERGY      TEMP
                                          (SEE NOTE)     KJ/KG-MOL      K  
             H2                           1.0000000         0.000      0.000

 O/F=    0.00000  %FUEL=100.000000  R,EQ.RATIO= 0.000000  PHI,EQ.RATIO= 0.000000

 THERMODYNAMIC PROPERTIES

 P, BAR           0.00825  0.00825  0.00910  0.00910  0.00910  0.00910  0.00910  0.00910
 T, K             7330.00  7340.00  7200.00  7210.00  7220.00  7230.00  7240.00  7250.00
 RHO, KG/CU M    1.3521-5 1.3501-5 1.5216-5 1.5193-5 1.5170-5 1.5147-5 1.5124-5 1.5101-5
 H, KJ/KG        374525.6 374952.3 368734.9 369115.7 369499.0 369884.9 370273.4 370664.6
 U, KJ/KG        313509.7 313844.1 308927.5 309218.2 309511.2 309806.7 310104.7 310405.1
 G, KJ/KG       -1248192.-1250406.-1213595.-1215793.-1217991.-1220190.-1222390.-1224590.
 S, KJ/(KG)(K)   221.3803 221.4385 219.7680 219.8209 219.8740 219.9274 219.9811 220.0351

 M, (1/n)           0.999    0.999    1.001    1.001    1.001    1.001    1.000    1.000
 (dLV/dLP)t      -1.00452 -1.00459 -1.00348 -1.00353 -1.00359 -1.00365 -1.00372 -1.00378
 (dLV/dLT)p        1.1085   1.1102   1.0847   1.0861   1.0874   1.0888   1.0902   1.0916
 Cp, KJ/(KG)(K)   42.5190  42.8264  37.9530  38.2055  38.4610  38.7194  38.9808  39.2452
 GAMMAs            1.3090   1.3072   1.3406   1.3386   1.3366   1.3347   1.3327   1.3308
 SON VEL,M/SEC     8937.0   8937.5   8954.2   8954.3   8954.4   8954.6   8954.8   8955.0

 TRANSPORT PROPERTIES (GASES ONLY)
   CONDUCTIVITY IN UNITS OF MILLIWATTS/(CM)(K)

 VISC,MILLIPOISE  0.69653  0.69638  0.69951  0.69958  0.69965  0.69970  0.69974  0.69977

  WITH EQUILIBRIUM REACTIONS

 Cp, KJ/(KG)(K)   42.5190  42.8264  37.9530  38.2055  38.4610  38.7194  38.9808  39.2452
 CONDUCTIVITY     26.2119  26.2721  25.3567  25.4125  25.4687  25.5250  25.5815  25.6383
 PRANDTL NUMBER    1.1299   1.1352   1.0470   1.0518   1.0566   1.0614   1.0663   1.0712

  WITH FROZEN REACTIONS

 Cp, KJ/(KG)(K)   20.8186  20.8219  20.7720  20.7747  20.7774  20.7801  20.7829  20.7858
 CONDUCTIVITY     22.0907  22.0904  22.1204  22.1270  22.1332  22.1390  22.1444  22.1494
 PRANDTL NUMBER    0.6564   0.6564   0.6569   0.6568   0.6568   0.6568   0.6567   0.6567

 MOLE FRACTIONS

 *e-              0.00903  0.00918  0.00694  0.00706  0.00717  0.00730  0.00742  0.00754
 *H               0.98193  0.98164  0.98612  0.98588  0.98564  0.98540  0.98516  0.98491
 *H+              0.00903  0.00918  0.00694  0.00705  0.00717  0.00730  0.00742  0.00754
 *H2              0.00001  0.00001  0.00001  0.00001  0.00001  0.00001  0.00001  0.00001

  * THERMODYNAMIC PROPERTIES FITTED TO 20000.K

 NOTE. WEIGHT FRACTION OF FUEL IN TOTAL FUELS AND OF OXIDANT IN TOTAL OXIDANTS









               THERMODYNAMIC EQUILIBRIUM PROPERTIES AT ASSIGNED

                           TEMPERATURE AND PRESSURE

 CASE =                

             REACTANT                    WT FRACTION      ENERGY      TEMP
                                          (SEE NOTE)     KJ/KG-MOL      K  
             H2                           1.0000000         0.000      0.000

 O/F=    0.00000  %FUEL=100.000000  R,EQ.RATIO= 0.000000  PHI,EQ.RATIO= 0.000000

 THERMODYNAMIC PROPERTIES

 P, BAR           0.00910  0.00910  0.00910  0.00910  0.00910  0.00910  0.00910  0.00910
 T, K             7260.00  7270.00  7280.00  7290.00  7300.00  7310.00  7320.00  7330.00
 RHO, KG/CU M    1.5079-5 1.5056-5 1.5033-5 1.5011-5 1.4988-5 1.4966-5 1.4943-5 1.4921-5
 H, KJ/KG        371058.3 371454.8 371854.0 372256.0 372660.7 373068.2 373478.6 373891.9
 U, KJ/KG        310708.1 311013.7 311321.8 311632.6 311946.0 312262.1 312580.9 312902.4
 G, KJ/KG       -1226791.-1228992.-1231193.-1233396.-1235599.-1237802.-1240006.-1242210.
 S, KJ/(KG)(K)   220.0894 220.1440 220.1988 220.2540 220.3095 220.3653 220.4214 220.4778

 M, (1/n)           1.000    1.000    1.000    1.000    1.000    1.000    0.999    0.999
 (dLV/dLP)t      -1.00384 -1.00390 -1.00397 -1.00404 -1.00410 -1.00417 -1.00424 -1.00431
 (dLV/dLT)p        1.0930   1.0944   1.0959   1.0973   1.0988   1.1003   1.1018   1.1034
 Cp, KJ/(KG)(K)   39.5126  39.7832  40.0568  40.3336  40.6135  40.8965  41.1828  41.4723
 GAMMAs            1.3289   1.3270   1.3250   1.3232   1.3213   1.3194   1.3175   1.3157
 SON VEL,M/SEC     8955.3   8955.6   8955.9   8956.2   8956.6   8957.0   8957.4   8957.9

 TRANSPORT PROPERTIES (GASES ONLY)
   CONDUCTIVITY IN UNITS OF MILLIWATTS/(CM)(K)

 VISC,MILLIPOISE  0.69978  0.69978  0.69977  0.69974  0.69970  0.69964  0.69958  0.69949

  WITH EQUILIBRIUM REACTIONS

 Cp, KJ/(KG)(K)   39.5126  39.7832  40.0568  40.3336  40.6135  40.8965  41.1828  41.4723
 CONDUCTIVITY     25.6953  25.7525  25.8099  25.8676  25.9255  25.9836  26.0420  26.1006
 PRANDTL NUMBER    1.0761   1.0810   1.0860   1.0911   1.0961   1.1012   1.1063   1.1115

  WITH FROZEN REACTIONS

 Cp, KJ/(KG)(K)   20.7886  20.7915  20.7944  20.7974  20.8004  20.8034  20.8065  20.8096
 CONDUCTIVITY     22.1539  22.1581  22.1619  22.1652  22.1681  22.1706  22.1727  22.1743
 PRANDTL NUMBER    0.6567   0.6566   0.6566   0.6566   0.6565   0.6565   0.6565   0.6564

 MOLE FRACTIONS

 *e-              0.00767  0.00780  0.00793  0.00806  0.00819  0.00833  0.00846  0.00860
 *H               0.98466  0.98440  0.98414  0.98388  0.98361  0.98334  0.98307  0.98279
 *H+              0.00767  0.00780  0.00793  0.00806  0.00819  0.00833  0.00846  0.00860
 *H2              0.00001  0.00001  0.00001  0.00001  0.00001  0.00001  0.00001  0.00001

  * THERMODYNAMIC PROPERTIES FITTED TO 20000.K

 NOTE. WEIGHT FRACTION OF FUEL IN TOTAL FUELS AND OF OXIDANT IN TOTAL OXIDANTS









               THERMODYNAMIC EQUILIBRIUM PROPERTIES AT ASSIGNED

                           TEMPERATURE AND PRESSURE

 CASE =                

             REACTANT                    WT FRACTION      ENERGY      TEMP
                                          (SEE NOTE)     KJ/KG-MOL      K  
             H2                           1.0000000         0.000      0.000

 O/F=    0.00000  %FUEL=100.000000  R,EQ.RATIO= 0.000000  PHI,EQ.RATIO= 0.000000

 THERMODYNAMIC PROPERTIES

 P, BAR           0.00910  0.01000  0.01000  0.01000  0.01000  0.01000  0.01000  0.01000
 T, K             7340.00  7200.00  7210.00  7220.00  7230.00  7240.00  7250.00  7260.00
 RHO, KG/CU M    1.4898-5 1.6726-5 1.6701-5 1.6676-5 1.6651-5 1.6626-5 1.6601-5 1.6576-5
 H, KJ/KG        374308.1 368268.0 368640.7 369015.9 369393.5 369773.7 370156.3 370541.4
 U, KJ/KG        313226.7 308479.7 308762.7 309047.9 309335.5 309625.5 309917.8 310212.6
 G, KJ/KG       -1244415.-1207955.-1210145.-1212335.-1214525.-1216716.-1218908.-1221100.
 S, KJ/(KG)(K)   220.5345 218.9199 218.9716 219.0236 219.0759 219.1284 219.1813 219.2343

 M, (1/n)           0.999    1.001    1.001    1.001    1.001    1.001    1.001    1.001
 (dLV/dLP)t      -1.00438 -1.00332 -1.00337 -1.00343 -1.00349 -1.00355 -1.00361 -1.00367
 (dLV/dLT)p        1.1049   1.0809   1.0821   1.0834   1.0847   1.0860   1.0874   1.0887
 Cp, KJ/(KG)(K)   41.7651  37.1557  37.3965  37.6402  37.8867  38.1361  38.3883  38.6435
 GAMMAs            1.3139   1.3473   1.3453   1.3433   1.3414   1.3394   1.3375   1.3355
 SON VEL,M/SEC     8958.4   8975.2   8975.3   8975.4   8975.5   8975.7   8975.9   8976.1

 TRANSPORT PROPERTIES (GASES ONLY)
   CONDUCTIVITY IN UNITS OF MILLIWATTS/(CM)(K)

 VISC,MILLIPOISE  0.69940  0.70172  0.70184  0.70194  0.70203  0.70211  0.70218  0.70223

  WITH EQUILIBRIUM REACTIONS

 Cp, KJ/(KG)(K)   41.7651  37.1557  37.3965  37.6402  37.8867  38.1361  38.3883  38.6435
 CONDUCTIVITY     26.1595  25.2699  25.3247  25.3797  25.4349  25.4903  25.5460  25.6018
 PRANDTL NUMBER    1.1166   1.0318   1.0364   1.0410   1.0457   1.0504   1.0552   1.0599

  WITH FROZEN REACTIONS

 Cp, KJ/(KG)(K)   20.8127  20.7653  20.7679  20.7705  20.7732  20.7758  20.7785  20.7813
 CONDUCTIVITY     22.1755  22.1810  22.1887  22.1961  22.2031  22.2097  22.2159  22.2217
 PRANDTL NUMBER    0.6564   0.6569   0.6569   0.6569   0.6568   0.6568   0.6567   0.6567

 MOLE FRACTIONS

 *e-              0.00874  0.00662  0.00673  0.00685  0.00696  0.00708  0.00720  0.00732
 *H               0.98251  0.98675  0.98653  0.98630  0.98607  0.98584  0.98560  0.98536
 *H+              0.00874  0.00662  0.00673  0.00685  0.00696  0.00708  0.00720  0.00732
 *H2              0.00001  0.00001  0.00001  0.00001  0.00001  0.00001  0.00001  0.00001

  * THERMODYNAMIC PROPERTIES FITTED TO 20000.K

 NOTE. WEIGHT FRACTION OF FUEL IN TOTAL FUELS AND OF OXIDANT IN TOTAL OXIDANTS









               THERMODYNAMIC EQUILIBRIUM PROPERTIES AT ASSIGNED

                           TEMPERATURE AND PRESSURE

 CASE =                

             REACTANT                    WT FRACTION      ENERGY      TEMP
                                          (SEE NOTE)     KJ/KG-MOL      K  
             H2                           1.0000000         0.000      0.000

 O/F=    0.00000  %FUEL=100.000000  R,EQ.RATIO= 0.000000  PHI,EQ.RATIO= 0.000000

 THERMODYNAMIC PROPERTIES

 P, BAR           0.01000  0.01000  0.01000  0.01000  0.01000  0.01000  0.01000  0.01000
 T, K             7270.00  7280.00  7290.00  7300.00  7310.00  7320.00  7330.00  7340.00
 RHO, KG/CU M    1.6551-5 1.6526-5 1.6501-5 1.6477-5 1.6452-5 1.6427-5 1.6403-5 1.6378-5
 H, KJ/KG        370929.2 371319.5 371712.4 372108.0 372506.3 372907.3 373311.0 373717.6
 U, KJ/KG        310509.7 310809.4 311111.6 311416.2 311723.5 312033.3 312345.7 312660.8
 G, KJ/KG       -1223293.-1225486.-1227679.-1229874.-1232068.-1234264.-1236460.-1238656.
 S, KJ/(KG)(K)   219.2877 219.3414 219.3953 219.4495 219.5041 219.5589 219.6140 219.6694

 M, (1/n)           1.000    1.000    1.000    1.000    1.000    1.000    1.000    1.000
 (dLV/dLP)t      -1.00373 -1.00379 -1.00385 -1.00392 -1.00398 -1.00404 -1.00411 -1.00418
 (dLV/dLT)p        1.0901   1.0915   1.0929   1.0943   1.0957   1.0972   1.0987   1.1002
 Cp, KJ/(KG)(K)   38.9016  39.1626  39.4266  39.6936  39.9637  40.2368  40.5130  40.7922
 GAMMAs            1.3336   1.3317   1.3298   1.3279   1.3260   1.3241   1.3222   1.3204
 SON VEL,M/SEC     8976.3   8976.6   8976.9   8977.2   8977.5   8977.9   8978.3   8978.7

 TRANSPORT PROPERTIES (GASES ONLY)
   CONDUCTIVITY IN UNITS OF MILLIWATTS/(CM)(K)

 VISC,MILLIPOISE  0.70227  0.70230  0.70231  0.70231  0.70230  0.70227  0.70223  0.70218

  WITH EQUILIBRIUM REACTIONS

 Cp, KJ/(KG)(K)   38.9016  39.1626  39.4266  39.6936  39.9637  40.2368  40.5130  40.7922
 CONDUCTIVITY     25.6578  25.7141  25.7706  25.8273  25.8842  25.9413  25.9987  26.0563
 PRANDTL NUMBER    1.0648   1.0696   1.0745   1.0794   1.0843   1.0893   1.0943   1.0993

  WITH FROZEN REACTIONS

 Cp, KJ/(KG)(K)   20.7840  20.7868  20.7897  20.7925  20.7954  20.7984  20.8013  20.8044
 CONDUCTIVITY     22.2271  22.2321  22.2367  22.2409  22.2447  22.2481  22.2511  22.2536
 PRANDTL NUMBER    0.6567   0.6566   0.6566   0.6566   0.6565   0.6565   0.6565   0.6564

 MOLE FRACTIONS

 *e-              0.00744  0.00756  0.00769  0.00782  0.00795  0.00808  0.00821  0.00834
 *H               0.98511  0.98487  0.98461  0.98436  0.98410  0.98384  0.98358  0.98331
 *H+              0.00744  0.00756  0.00769  0.00782  0.00795  0.00808  0.00821  0.00834
 *H2              0.00001  0.00001  0.00001  0.00001  0.00001  0.00001  0.00001  0.00001

  * THERMODYNAMIC PROPERTIES FITTED TO 20000.K

 NOTE. WEIGHT FRACTION OF FUEL IN TOTAL FUELS AND OF OXIDANT IN TOTAL OXIDANTS









               THERMODYNAMIC EQUILIBRIUM PROPERTIES AT ASSIGNED

                           TEMPERATURE AND PRESSURE

 CASE =                

             REACTANT                    WT FRACTION      ENERGY      TEMP
                                          (SEE NOTE)     KJ/KG-MOL      K  
             H2                           1.0000000         0.000      0.000

 O/F=    0.00000  %FUEL=100.000000  R,EQ.RATIO= 0.000000  PHI,EQ.RATIO= 0.000000

 THERMODYNAMIC PROPERTIES

 P, BAR           0.01100  0.01100  0.01100  0.01100  0.01100  0.01100  0.01100  0.01100
 T, K             7200.00  7210.00  7220.00  7230.00  7240.00  7250.00  7260.00  7270.00
 RHO, KG/CU M    1.8404-5 1.8376-5 1.8349-5 1.8322-5 1.8294-5 1.8267-5 1.8240-5 1.8212-5
 H, KJ/KG        367817.9 368182.9 368550.2 368919.9 369291.9 369666.3 370043.2 370422.5
 U, KJ/KG        308048.1 308323.7 308601.4 308881.4 309163.6 309448.1 309734.9 310024.0
 G, KJ/KG       -1202258.-1204439.-1206620.-1208802.-1210985.-1213167.-1215351.-1217535.
 S, KJ/(KG)(K)   218.0661 218.1167 218.1676 218.2188 218.2702 218.3219 218.3738 218.4261

 M, (1/n)           1.002    1.001    1.001    1.001    1.001    1.001    1.001    1.001
 (dLV/dLP)t      -1.00317 -1.00322 -1.00327 -1.00333 -1.00338 -1.00344 -1.00350 -1.00356
 (dLV/dLT)p        1.0771   1.0784   1.0796   1.0808   1.0821   1.0834   1.0846   1.0859
 Cp, KJ/(KG)(K)   36.3872  36.6168  36.8492  37.0842  37.3220  37.5625  37.8058  38.0519
 GAMMAs            1.3542   1.3522   1.3502   1.3482   1.3462   1.3442   1.3423   1.3403
 SON VEL,M/SEC     8996.5   8996.6   8996.7   8996.8   8996.9   8997.1   8997.2   8997.4

 TRANSPORT PROPERTIES (GASES ONLY)
   CONDUCTIVITY IN UNITS OF MILLIWATTS/(CM)(K)

 VISC,MILLIPOISE  0.70388  0.70403  0.70417  0.70429  0.70441  0.70451  0.70460  0.70468

  WITH EQUILIBRIUM REACTIONS

 Cp, KJ/(KG)(K)   36.3872  36.6168  36.8492  37.0842  37.3220  37.5625  37.8058  38.0519
 CONDUCTIVITY     25.1862  25.2400  25.2939  25.3480  25.4024  25.4569  25.5116  25.5665
 PRANDTL NUMBER    1.0169   1.0214   1.0259   1.0304   1.0349   1.0395   1.0442   1.0488

  WITH FROZEN REACTIONS

 Cp, KJ/(KG)(K)   20.7590  20.7614  20.7639  20.7664  20.7690  20.7716  20.7742  20.7769
 CONDUCTIVITY     22.2393  22.2481  22.2566  22.2648  22.2725  22.2799  22.2869  22.2935
 PRANDTL NUMBER    0.6570   0.6570   0.6569   0.6569   0.6569   0.6568   0.6568   0.6567

 MOLE FRACTIONS

 *e-              0.00631  0.00642  0.00653  0.00664  0.00675  0.00686  0.00698  0.00710
 *H               0.98736  0.98715  0.98693  0.98671  0.98649  0.98626  0.98603  0.98580
 *H+              0.00631  0.00642  0.00653  0.00664  0.00675  0.00686  0.00698  0.00710
 *H2              0.00001  0.00001  0.00001  0.00001  0.00001  0.00001  0.00001  0.00001

  * THERMODYNAMIC PROPERTIES FITTED TO 20000.K

 NOTE. WEIGHT FRACTION OF FUEL IN TOTAL FUELS AND OF OXIDANT IN TOTAL OXIDANTS









               THERMODYNAMIC EQUILIBRIUM PROPERTIES AT ASSIGNED

                           TEMPERATURE AND PRESSURE

 CASE =                

             REACTANT                    WT FRACTION      ENERGY      TEMP
                                          (SEE NOTE)     KJ/KG-MOL      K  
             H2                           1.0000000         0.000      0.000

 O/F=    0.00000  %FUEL=100.000000  R,EQ.RATIO= 0.000000  PHI,EQ.RATIO= 0.000000

 THERMODYNAMIC PROPERTIES

 P, BAR           0.01100  0.01100  0.01100  0.01100  0.01100  0.01100  0.01100  0.01200
 T, K             7280.00  7290.00  7300.00  7310.00  7320.00  7330.00  7340.00  7200.00
 RHO, KG/CU M    1.8185-5 1.8158-5 1.8131-5 1.8104-5 1.8077-5 1.8050-5 1.8023-5 2.0082-5
 H, KJ/KG        370804.2 371188.5 371575.3 371964.6 372356.6 372751.1 373148.4 367425.2
 U, KJ/KG        310315.5 310609.4 310905.6 311204.3 311505.5 311809.2 312115.4 307671.6
 G, KJ/KG       -1219719.-1221905.-1224090.-1226276.-1228463.-1230650.-1232838.-1197058.
 S, KJ/(KG)(K)   218.4785 218.5313 218.5843 218.6376 218.6912 218.7450 218.7992 217.2893

 M, (1/n)           1.001    1.001    1.000    1.000    1.000    1.000    1.000    1.002
 (dLV/dLP)t      -1.00361 -1.00367 -1.00374 -1.00380 -1.00386 -1.00392 -1.00399 -1.00303
 (dLV/dLT)p        1.0873   1.0886   1.0900   1.0913   1.0927   1.0941   1.0955   1.0739
 Cp, KJ/(KG)(K)   38.3008  38.5525  38.8071  39.0646  39.3250  39.5884  39.8547  35.7169
 GAMMAs            1.3384   1.3365   1.3346   1.3327   1.3308   1.3289   1.3270   1.3604
 SON VEL,M/SEC     8997.7   8997.9   8998.2   8998.5   8998.8   8999.1   8999.5   9016.1

 TRANSPORT PROPERTIES (GASES ONLY)
   CONDUCTIVITY IN UNITS OF MILLIWATTS/(CM)(K)

 VISC,MILLIPOISE  0.70475  0.70480  0.70484  0.70487  0.70489  0.70489  0.70488  0.70576

  WITH EQUILIBRIUM REACTIONS

 Cp, KJ/(KG)(K)   38.3008  38.5525  38.8071  39.0646  39.3250  39.5884  39.8547  35.7169
 CONDUCTIVITY     25.6217  25.6770  25.7326  25.7883  25.8442  25.9004  25.9568  25.1131
 PRANDTL NUMBER    1.0535   1.0582   1.0630   1.0678   1.0726   1.0774   1.0823   1.0038

  WITH FROZEN REACTIONS

 Cp, KJ/(KG)(K)   20.7795  20.7822  20.7850  20.7878  20.7906  20.7934  20.7963  20.7534
 CONDUCTIVITY     22.2998  22.3056  22.3111  22.3162  22.3208  22.3251  22.3289  22.2900
 PRANDTL NUMBER    0.6567   0.6567   0.6566   0.6566   0.6566   0.6565   0.6565   0.6571

 MOLE FRACTIONS

 *e-              0.00721  0.00733  0.00746  0.00758  0.00770  0.00783  0.00796  0.00605
 *H               0.98556  0.98532  0.98508  0.98484  0.98459  0.98433  0.98408  0.98790
 *H+              0.00721  0.00733  0.00746  0.00758  0.00770  0.00783  0.00796  0.00605
 *H2              0.00001  0.00001  0.00001  0.00001  0.00001  0.00001  0.00001  0.00001

  * THERMODYNAMIC PROPERTIES FITTED TO 20000.K

 NOTE. WEIGHT FRACTION OF FUEL IN TOTAL FUELS AND OF OXIDANT IN TOTAL OXIDANTS









               THERMODYNAMIC EQUILIBRIUM PROPERTIES AT ASSIGNED

                           TEMPERATURE AND PRESSURE

 CASE =                

             REACTANT                    WT FRACTION      ENERGY      TEMP
                                          (SEE NOTE)     KJ/KG-MOL      K  
             H2                           1.0000000         0.000      0.000

 O/F=    0.00000  %FUEL=100.000000  R,EQ.RATIO= 0.000000  PHI,EQ.RATIO= 0.000000

 THERMODYNAMIC PROPERTIES

 P, BAR           0.01200  0.01200  0.01200  0.01200  0.01200  0.01200  0.01200  0.01200
 T, K             7210.00  7220.00  7230.00  7240.00  7250.00  7260.00  7270.00  7280.00
 RHO, KG/CU M    2.0053-5 2.0023-5 1.9993-5 1.9963-5 1.9933-5 1.9904-5 1.9874-5 1.9845-5
 H, KJ/KG        367783.5 368144.0 368506.7 368871.7 369238.9 369608.5 369980.5 370354.7
 U, KJ/KG        307940.7 308211.9 308485.2 308760.7 309038.3 309318.2 309600.3 309884.6
 G, KJ/KG       -1199231.-1201405.-1203579.-1205753.-1207929.-1210104.-1212280.-1214457.
 S, KJ/(KG)(K)   217.3390 217.3890 217.4392 217.4897 217.5403 217.5913 217.6425 217.6939

 M, (1/n)           1.002    1.002    1.002    1.001    1.001    1.001    1.001    1.001
 (dLV/dLP)t      -1.00308 -1.00314 -1.00319 -1.00324 -1.00330 -1.00335 -1.00341 -1.00346
 (dLV/dLT)p        1.0751   1.0762   1.0774   1.0786   1.0798   1.0811   1.0823   1.0836
 Cp, KJ/(KG)(K)   35.9368  36.1593  36.3843  36.6120  36.8423  37.0752  37.3108  37.5491
 GAMMAs            1.3584   1.3564   1.3544   1.3524   1.3505   1.3485   1.3465   1.3446
 SON VEL,M/SEC     9016.2   9016.2   9016.3   9016.4   9016.5   9016.7   9016.9   9017.0

 TRANSPORT PROPERTIES (GASES ONLY)
   CONDUCTIVITY IN UNITS OF MILLIWATTS/(CM)(K)

 VISC,MILLIPOISE  0.70594  0.70612  0.70628  0.70643  0.70656  0.70669  0.70680  0.70690

  WITH EQUILIBRIUM REACTIONS

 Cp, KJ/(KG)(K)   35.9368  36.1593  36.3843  36.6120  36.8423  37.0752  37.3108  37.5491
 CONDUCTIVITY     25.1659  25.2189  25.2721  25.3255  25.3791  25.4329  25.4868  25.5410
 PRANDTL NUMBER    1.0081   1.0124   1.0168   1.0212   1.0257   1.0302   1.0347   1.0393

  WITH FROZEN REACTIONS

 Cp, KJ/(KG)(K)   20.7557  20.7581  20.7606  20.7630  20.7655  20.7680  20.7706  20.7732
 CONDUCTIVITY     22.2998  22.3093  22.3185  22.3273  22.3357  22.3438  22.3515  22.3588
 PRANDTL NUMBER    0.6571   0.6570   0.6570   0.6569   0.6569   0.6569   0.6568   0.6568

 MOLE FRACTIONS

 *e-              0.00615  0.00625  0.00636  0.00647  0.00657  0.00668  0.00680  0.00691
 *H               0.98769  0.98748  0.98727  0.98706  0.98684  0.98662  0.98640  0.98617
 *H+              0.00615  0.00625  0.00636  0.00647  0.00657  0.00668  0.00680  0.00691
 *H2              0.00001  0.00001  0.00001  0.00001  0.00001  0.00001  0.00001  0.00001

  * THERMODYNAMIC PROPERTIES FITTED TO 20000.K

 NOTE. WEIGHT FRACTION OF FUEL IN TOTAL FUELS AND OF OXIDANT IN TOTAL OXIDANTS









               THERMODYNAMIC EQUILIBRIUM PROPERTIES AT ASSIGNED

                           TEMPERATURE AND PRESSURE

 CASE =                

             REACTANT                    WT FRACTION      ENERGY      TEMP
                                          (SEE NOTE)     KJ/KG-MOL      K  
             H2                           1.0000000         0.000      0.000

 O/F=    0.00000  %FUEL=100.000000  R,EQ.RATIO= 0.000000  PHI,EQ.RATIO= 0.000000

 THERMODYNAMIC PROPERTIES

 P, BAR           0.01200  0.01200  0.01200  0.01200  0.01200  0.01200  0.01320  0.01320
 T, K             7290.00  7300.00  7310.00  7320.00  7330.00  7340.00  7200.00  7210.00
 RHO, KG/CU M    1.9815-5 1.9786-5 1.9756-5 1.9727-5 1.9697-5 1.9668-5 2.2097-5 2.2064-5
 H, KJ/KG        370731.4 371110.6 371492.1 371876.2 372262.7 372651.8 367014.2 367365.4
 U, KJ/KG        310171.3 310460.2 310751.5 311045.1 311341.1 311639.5 307277.5 307539.8
 G, KJ/KG       -1216634.-1218812.-1220990.-1223169.-1225348.-1227528.-1191364.-1193528.
 S, KJ/(KG)(K)   217.7456 217.7976 217.8498 217.9023 217.9551 218.0082 216.4414 216.4901

 M, (1/n)           1.001    1.001    1.001    1.001    1.000    1.000    1.002    1.002
 (dLV/dLP)t      -1.00352 -1.00358 -1.00364 -1.00370 -1.00376 -1.00382 -1.00289 -1.00294
 (dLV/dLT)p        1.0849   1.0862   1.0875   1.0888   1.0902   1.0915   1.0705   1.0716
 Cp, KJ/(KG)(K)   37.7901  38.0339  38.2805  38.5298  38.7819  39.0369  35.0155  35.2252
 GAMMAs            1.3426   1.3407   1.3388   1.3369   1.3350   1.3331   1.3673   1.3653
 SON VEL,M/SEC     9017.2   9017.5   9017.7   9018.0   9018.3   9018.6   9037.6   9037.6

 TRANSPORT PROPERTIES (GASES ONLY)
   CONDUCTIVITY IN UNITS OF MILLIWATTS/(CM)(K)

 VISC,MILLIPOISE  0.70699  0.70707  0.70713  0.70718  0.70722  0.70725  0.70774  0.70796

  WITH EQUILIBRIUM REACTIONS

 Cp, KJ/(KG)(K)   37.7901  38.0339  38.2805  38.5298  38.7819  39.0369  35.0155  35.2252
 CONDUCTIVITY     25.5953  25.6499  25.7046  25.7595  25.8146  25.8700  25.0364  25.0883
 PRANDTL NUMBER    1.0438   1.0484   1.0531   1.0578   1.0625   1.0672   0.9898   0.9940

  WITH FROZEN REACTIONS

 Cp, KJ/(KG)(K)   20.7758  20.7784  20.7811  20.7838  20.7865  20.7892  20.7475  20.7498
 CONDUCTIVITY     22.3657  22.3723  22.3785  22.3843  22.3897  22.3947  22.3429  22.3538
 PRANDTL NUMBER    0.6567   0.6567   0.6567   0.6566   0.6566   0.6565   0.6572   0.6572

 MOLE FRACTIONS

 *e-              0.00702  0.00714  0.00726  0.00738  0.00750  0.00762  0.00577  0.00586
 *H               0.98594  0.98571  0.98548  0.98524  0.98499  0.98475  0.98846  0.98826
 *H+              0.00702  0.00714  0.00726  0.00738  0.00750  0.00762  0.00577  0.00586
 *H2              0.00001  0.00001  0.00001  0.00001  0.00001  0.00001  0.00001  0.00001

  * THERMODYNAMIC PROPERTIES FITTED TO 20000.K

 NOTE. WEIGHT FRACTION OF FUEL IN TOTAL FUELS AND OF OXIDANT IN TOTAL OXIDANTS









               THERMODYNAMIC EQUILIBRIUM PROPERTIES AT ASSIGNED

                           TEMPERATURE AND PRESSURE

 CASE =                

             REACTANT                    WT FRACTION      ENERGY      TEMP
                                          (SEE NOTE)     KJ/KG-MOL      K  
             H2                           1.0000000         0.000      0.000

 O/F=    0.00000  %FUEL=100.000000  R,EQ.RATIO= 0.000000  PHI,EQ.RATIO= 0.000000

 THERMODYNAMIC PROPERTIES

 P, BAR           0.01320  0.01320  0.01320  0.01320  0.01320  0.01320  0.01320  0.01320
 T, K             7220.00  7230.00  7240.00  7250.00  7260.00  7270.00  7280.00  7290.00
 RHO, KG/CU M    2.2031-5 2.1999-5 2.1966-5 2.1933-5 2.1901-5 2.1868-5 2.1836-5 2.1804-5
 H, KJ/KG        367718.8 368074.2 368431.8 368791.6 369153.6 369517.8 369884.3 370253.1
 U, KJ/KG        307804.1 308070.5 308338.9 308609.5 308882.1 309156.8 309433.7 309712.7
 G, KJ/KG       -1195693.-1197859.-1200025.-1202192.-1204359.-1206527.-1208695.-1210863.
 S, KJ/(KG)(K)   216.5391 216.5883 216.6377 216.6874 216.7373 216.7874 216.8378 216.8884

 M, (1/n)           1.002    1.002    1.002    1.002    1.002    1.001    1.001    1.001
 (dLV/dLP)t      -1.00299 -1.00304 -1.00309 -1.00314 -1.00320 -1.00325 -1.00330 -1.00336
 (dLV/dLT)p        1.0727   1.0738   1.0750   1.0762   1.0773   1.0785   1.0797   1.0810
 Cp, KJ/(KG)(K)   35.4373  35.6518  35.8689  36.0885  36.3106  36.5352  36.7625  36.9923
 GAMMAs            1.3633   1.3613   1.3593   1.3573   1.3553   1.3534   1.3514   1.3494
 SON VEL,M/SEC     9037.7   9037.8   9037.9   9038.0   9038.1   9038.2   9038.4   9038.6

 TRANSPORT PROPERTIES (GASES ONLY)
   CONDUCTIVITY IN UNITS OF MILLIWATTS/(CM)(K)

 VISC,MILLIPOISE  0.70817  0.70836  0.70855  0.70872  0.70888  0.70903  0.70917  0.70929

  WITH EQUILIBRIUM REACTIONS

 Cp, KJ/(KG)(K)   35.4373  35.6518  35.8689  36.0885  36.3106  36.5352  36.7625  36.9923
 CONDUCTIVITY     25.1403  25.1926  25.2450  25.2976  25.3504  25.4033  25.4564  25.5098
 PRANDTL NUMBER    0.9982   1.0025   1.0067   1.0110   1.0154   1.0197   1.0241   1.0286

  WITH FROZEN REACTIONS

 Cp, KJ/(KG)(K)   20.7521  20.7544  20.7568  20.7592  20.7616  20.7640  20.7665  20.7690
 CONDUCTIVITY     22.3644  22.3746  22.3845  22.3940  22.4032  22.4120  22.4204  22.4285
 PRANDTL NUMBER    0.6571   0.6571   0.6570   0.6570   0.6569   0.6569   0.6569   0.6568

 MOLE FRACTIONS

 *e-              0.00596  0.00606  0.00617  0.00627  0.00638  0.00648  0.00659  0.00670
 *H               0.98806  0.98786  0.98766  0.98745  0.98724  0.98703  0.98681  0.98659
 *H+              0.00596  0.00606  0.00617  0.00627  0.00638  0.00648  0.00659  0.00670
 *H2              0.00001  0.00001  0.00001  0.00001  0.00001  0.00001  0.00001  0.00001

  * THERMODYNAMIC PROPERTIES FITTED TO 20000.K

 NOTE. WEIGHT FRACTION OF FUEL IN TOTAL FUELS AND OF OXIDANT IN TOTAL OXIDANTS









               THERMODYNAMIC EQUILIBRIUM PROPERTIES AT ASSIGNED

                           TEMPERATURE AND PRESSURE

 CASE =                

             REACTANT                    WT FRACTION      ENERGY      TEMP
                                          (SEE NOTE)     KJ/KG-MOL      K  
             H2                           1.0000000         0.000      0.000

 O/F=    0.00000  %FUEL=100.000000  R,EQ.RATIO= 0.000000  PHI,EQ.RATIO= 0.000000

 THERMODYNAMIC PROPERTIES

 P, BAR           0.01320  0.01320  0.01320  0.01320  0.01320  0.01480  0.01480  0.01480
 T, K             7300.00  7310.00  7320.00  7330.00  7340.00  7200.00  7210.00  7220.00
 RHO, KG/CU M    2.1771-5 2.1739-5 2.1707-5 2.1675-5 2.1643-5 2.4783-5 2.4747-5 2.4710-5
 H, KJ/KG        370624.1 370997.6 371373.3 371751.5 372132.1 366546.0 366889.1 367234.3
 U, KJ/KG        309994.0 310277.5 310563.2 310851.2 311141.5 306828.4 307083.1 307339.6
 G, KJ/KG       -1213032.-1215202.-1217372.-1219543.-1221714.-1184530.-1186685.-1188840.
 S, KJ/(KG)(K)   216.9393 216.9904 217.0417 217.0934 217.1453 215.4272 215.4749 215.5227

 M, (1/n)           1.001    1.001    1.001    1.001    1.001    1.002    1.002    1.002
 (dLV/dLP)t      -1.00341 -1.00347 -1.00353 -1.00359 -1.00364 -1.00274 -1.00278 -1.00283
 (dLV/dLT)p        1.0822   1.0834   1.0847   1.0860   1.0873   1.0666   1.0676   1.0687
 Cp, KJ/(KG)(K)   37.2247  37.4598  37.6975  37.9379  38.1810  34.2165  34.4145  34.6149
 GAMMAs            1.3475   1.3456   1.3437   1.3417   1.3398   1.3756   1.3735   1.3715
 SON VEL,M/SEC     9038.8   9039.0   9039.2   9039.5   9039.8   9063.4   9063.5   9063.5

 TRANSPORT PROPERTIES (GASES ONLY)
   CONDUCTIVITY IN UNITS OF MILLIWATTS/(CM)(K)

 VISC,MILLIPOISE  0.70941  0.70951  0.70960  0.70968  0.70974  0.71002  0.71027  0.71052

  WITH EQUILIBRIUM REACTIONS

 Cp, KJ/(KG)(K)   37.2247  37.4598  37.6975  37.9379  38.1810  34.2165  34.4145  34.6149
 CONDUCTIVITY     25.5632  25.6169  25.6708  25.7248  25.7791  24.9488  24.9996  25.0506
 PRANDTL NUMBER    1.0330   1.0375   1.0420   1.0466   1.0512   0.9738   0.9778   0.9818

  WITH FROZEN REACTIONS

 Cp, KJ/(KG)(K)   20.7715  20.7740  20.7766  20.7792  20.7819  20.7409  20.7431  20.7452
 CONDUCTIVITY     22.4363  22.4436  22.4506  22.4572  22.4635  22.4030  22.4151  22.4268
 PRANDTL NUMBER    0.6568   0.6567   0.6567   0.6566   0.6566   0.6573   0.6573   0.6572

 MOLE FRACTIONS

 *e-              0.00681  0.00692  0.00704  0.00715  0.00727  0.00545  0.00554  0.00563
 *H               0.98637  0.98615  0.98592  0.98569  0.98545  0.98909  0.98891  0.98872
 *H+              0.00681  0.00692  0.00704  0.00715  0.00727  0.00545  0.00554  0.00563
 *H2              0.00001  0.00001  0.00001  0.00001  0.00001  0.00001  0.00001  0.00001

  * THERMODYNAMIC PROPERTIES FITTED TO 20000.K

 NOTE. WEIGHT FRACTION OF FUEL IN TOTAL FUELS AND OF OXIDANT IN TOTAL OXIDANTS









               THERMODYNAMIC EQUILIBRIUM PROPERTIES AT ASSIGNED

                           TEMPERATURE AND PRESSURE

 CASE =                

             REACTANT                    WT FRACTION      ENERGY      TEMP
                                          (SEE NOTE)     KJ/KG-MOL      K  
             H2                           1.0000000         0.000      0.000

 O/F=    0.00000  %FUEL=100.000000  R,EQ.RATIO= 0.000000  PHI,EQ.RATIO= 0.000000

 THERMODYNAMIC PROPERTIES

 P, BAR           0.01480  0.01480  0.01480  0.01480  0.01480  0.01480  0.01480  0.01480
 T, K             7230.00  7240.00  7250.00  7260.00  7270.00  7280.00  7290.00  7300.00
 RHO, KG/CU M    2.4674-5 2.4637-5 2.4601-5 2.4564-5 2.4528-5 2.4492-5 2.4456-5 2.4420-5
 H, KJ/KG        367581.4 367930.6 368281.9 368635.2 368990.7 369348.3 369708.0 370070.0
 U, KJ/KG        307598.1 307858.5 308120.8 308385.2 308651.5 308919.9 309190.3 309462.8
 G, KJ/KG       -1190995.-1193151.-1195308.-1197464.-1199622.-1201780.-1203938.-1206097.
 S, KJ/(KG)(K)   215.5708 215.6190 215.6675 215.7162 215.7651 215.8143 215.8637 215.9133

 M, (1/n)           1.002    1.002    1.002    1.002    1.002    1.002    1.002    1.001
 (dLV/dLP)t      -1.00288 -1.00292 -1.00297 -1.00302 -1.00307 -1.00312 -1.00318 -1.00323
 (dLV/dLT)p        1.0698   1.0709   1.0720   1.0731   1.0742   1.0753   1.0765   1.0777
 Cp, KJ/(KG)(K)   34.8175  35.0225  35.2299  35.4397  35.6518  35.8664  36.0835  36.3030
 GAMMAs            1.3695   1.3675   1.3655   1.3635   1.3616   1.3596   1.3576   1.3557
 SON VEL,M/SEC     9063.6   9063.7   9063.8   9063.9   9064.0   9064.1   9064.3   9064.5

 TRANSPORT PROPERTIES (GASES ONLY)
   CONDUCTIVITY IN UNITS OF MILLIWATTS/(CM)(K)

 VISC,MILLIPOISE  0.71075  0.71098  0.71119  0.71139  0.71158  0.71176  0.71193  0.71209

  WITH EQUILIBRIUM REACTIONS

 Cp, KJ/(KG)(K)   34.8175  35.0225  35.2299  35.4397  35.6518  35.8664  36.0835  36.3030
 CONDUCTIVITY     25.1018  25.1531  25.2045  25.2562  25.3080  25.3600  25.4121  25.4644
 PRANDTL NUMBER    0.9859   0.9899   0.9941   0.9982   1.0024   1.0066   1.0109   1.0152

  WITH FROZEN REACTIONS

 Cp, KJ/(KG)(K)   20.7474  20.7497  20.7519  20.7542  20.7565  20.7589  20.7612  20.7636
 CONDUCTIVITY     22.4383  22.4494  22.4602  22.4706  22.4807  22.4905  22.4999  22.5090
 PRANDTL NUMBER    0.6572   0.6571   0.6571   0.6571   0.6570   0.6570   0.6569   0.6569

 MOLE FRACTIONS

 *e-              0.00573  0.00583  0.00592  0.00602  0.00612  0.00623  0.00633  0.00643
 *H               0.98853  0.98834  0.98814  0.98794  0.98774  0.98754  0.98733  0.98712
 *H+              0.00573  0.00583  0.00592  0.00602  0.00612  0.00623  0.00633  0.00643
 *H2              0.00001  0.00001  0.00001  0.00001  0.00001  0.00001  0.00001  0.00001

  * THERMODYNAMIC PROPERTIES FITTED TO 20000.K

 NOTE. WEIGHT FRACTION OF FUEL IN TOTAL FUELS AND OF OXIDANT IN TOTAL OXIDANTS









               THERMODYNAMIC EQUILIBRIUM PROPERTIES AT ASSIGNED

                           TEMPERATURE AND PRESSURE

 CASE =                

             REACTANT                    WT FRACTION      ENERGY      TEMP
                                          (SEE NOTE)     KJ/KG-MOL      K  
             H2                           1.0000000         0.000      0.000

 O/F=    0.00000  %FUEL=100.000000  R,EQ.RATIO= 0.000000  PHI,EQ.RATIO= 0.000000

 THERMODYNAMIC PROPERTIES

 P, BAR           0.01480  0.01480  0.01480  0.01480  0.01650  0.01650  0.01650  0.01650
 T, K             7310.00  7320.00  7330.00  7340.00  7200.00  7210.00  7220.00  7230.00
 RHO, KG/CU M    2.4384-5 2.4348-5 2.4312-5 2.4276-5 2.7638-5 2.7597-5 2.7557-5 2.7516-5
 H, KJ/KG        370434.1 370800.5 371169.1 371540.0 366125.0 366460.9 366798.7 367138.5
 U, KJ/KG        309737.5 310014.2 310293.1 310574.1 306424.8 306672.5 306922.0 307173.3
 G, KJ/KG       -1208256.-1210416.-1212577.-1214738.-1178038.-1180183.-1182328.-1184474.
 S, KJ/(KG)(K)   215.9631 216.0132 216.0635 216.1141 214.4671 214.5137 214.5605 214.6075

 M, (1/n)           1.001    1.001    1.001    1.001    1.003    1.003    1.003    1.002
 (dLV/dLP)t      -1.00328 -1.00333 -1.00339 -1.00344 -1.00259 -1.00264 -1.00268 -1.00273
 (dLV/dLT)p        1.0788   1.0800   1.0813   1.0825   1.0631   1.0641   1.0651   1.0661
 Cp, KJ/(KG)(K)   36.5250  36.7495  36.9766  37.2062  33.4985  33.6861  33.8758  34.0677
 GAMMAs            1.3538   1.3518   1.3499   1.3480   1.3834   1.3814   1.3794   1.3774
 SON VEL,M/SEC     9064.7   9064.9   9065.1   9065.3   9088.0   9088.0   9088.1   9088.2

 TRANSPORT PROPERTIES (GASES ONLY)
   CONDUCTIVITY IN UNITS OF MILLIWATTS/(CM)(K)

 VISC,MILLIPOISE  0.71224  0.71237  0.71249  0.71260  0.71207  0.71236  0.71264  0.71291

  WITH EQUILIBRIUM REACTIONS

 Cp, KJ/(KG)(K)   36.5250  36.7495  36.9766  37.2062  33.4985  33.6861  33.8758  34.0677
 CONDUCTIVITY     25.5169  25.5696  25.6224  25.6754  24.8699  24.9198  24.9698  25.0199
 PRANDTL NUMBER    1.0195   1.0238   1.0282   1.0326   0.9591   0.9630   0.9668   0.9707

  WITH FROZEN REACTIONS

 Cp, KJ/(KG)(K)   20.7661  20.7685  20.7710  20.7735  20.7349  20.7370  20.7391  20.7412
 CONDUCTIVITY     22.5178  22.5261  22.5341  22.5418  22.4567  22.4699  22.4827  22.4953
 PRANDTL NUMBER    0.6568   0.6568   0.6567   0.6567   0.6575   0.6574   0.6574   0.6573

 MOLE FRACTIONS

 *e-              0.00654  0.00665  0.00676  0.00687  0.00516  0.00525  0.00534  0.00543
 *H               0.98691  0.98669  0.98648  0.98625  0.98966  0.98949  0.98931  0.98913
 *H+              0.00654  0.00665  0.00676  0.00687  0.00516  0.00525  0.00534  0.00543
 *H2              0.00001  0.00001  0.00001  0.00001  0.00001  0.00001  0.00001  0.00001

  * THERMODYNAMIC PROPERTIES FITTED TO 20000.K

 NOTE. WEIGHT FRACTION OF FUEL IN TOTAL FUELS AND OF OXIDANT IN TOTAL OXIDANTS









               THERMODYNAMIC EQUILIBRIUM PROPERTIES AT ASSIGNED

                           TEMPERATURE AND PRESSURE

 CASE =                

             REACTANT                    WT FRACTION      ENERGY      TEMP
                                          (SEE NOTE)     KJ/KG-MOL      K  
             H2                           1.0000000         0.000      0.000

 O/F=    0.00000  %FUEL=100.000000  R,EQ.RATIO= 0.000000  PHI,EQ.RATIO= 0.000000

 THERMODYNAMIC PROPERTIES

 P, BAR           0.01650  0.01650  0.01650  0.01650  0.01650  0.01650  0.01650  0.01650
 T, K             7240.00  7250.00  7260.00  7270.00  7280.00  7290.00  7300.00  7310.00
 RHO, KG/CU M    2.7475-5 2.7435-5 2.7395-5 2.7354-5 2.7314-5 2.7274-5 2.7234-5 2.7194-5
 H, KJ/KG        367480.1 367823.7 368169.3 368516.8 368866.4 369218.1 369571.8 369927.6
 U, KJ/KG        307426.5 307681.6 307938.5 308197.3 308458.0 308720.7 308985.4 309252.0
 G, KJ/KG       -1186620.-1188767.-1190914.-1193062.-1195210.-1197359.-1199508.-1201658.
 S, KJ/(KG)(K)   214.6547 214.7022 214.7498 214.7976 214.8457 214.8940 214.9425 214.9912

 M, (1/n)           1.002    1.002    1.002    1.002    1.002    1.002    1.002    1.002
 (dLV/dLP)t      -1.00277 -1.00282 -1.00287 -1.00291 -1.00296 -1.00301 -1.00306 -1.00311
 (dLV/dLT)p        1.0671   1.0682   1.0692   1.0703   1.0714   1.0725   1.0736   1.0747
 Cp, KJ/(KG)(K)   34.2619  34.4583  34.6569  34.8579  35.0611  35.2667  35.4746  35.6849
 GAMMAs            1.3754   1.3734   1.3714   1.3694   1.3674   1.3655   1.3635   1.3616
 SON VEL,M/SEC     9088.3   9088.4   9088.5   9088.6   9088.7   9088.9   9089.0   9089.2

 TRANSPORT PROPERTIES (GASES ONLY)
   CONDUCTIVITY IN UNITS OF MILLIWATTS/(CM)(K)

 VISC,MILLIPOISE  0.71317  0.71342  0.71366  0.71389  0.71411  0.71432  0.71452  0.71470

  WITH EQUILIBRIUM REACTIONS

 Cp, KJ/(KG)(K)   34.2619  34.4583  34.6569  34.8579  35.0611  35.2667  35.4746  35.6849
 CONDUCTIVITY     25.0702  25.1207  25.1714  25.2222  25.2731  25.3242  25.3755  25.4269
 PRANDTL NUMBER    0.9746   0.9786   0.9826   0.9866   0.9907   0.9948   0.9989   1.0030

  WITH FROZEN REACTIONS

 Cp, KJ/(KG)(K)   20.7433  20.7454  20.7476  20.7498  20.7520  20.7543  20.7566  20.7589
 CONDUCTIVITY     22.5075  22.5195  22.5311  22.5424  22.5533  22.5639  22.5742  22.5842
 PRANDTL NUMBER    0.6573   0.6572   0.6572   0.6571   0.6571   0.6570   0.6570   0.6569

 MOLE FRACTIONS

 *e-              0.00552  0.00561  0.00571  0.00580  0.00590  0.00600  0.00610  0.00620
 *H               0.98895  0.98876  0.98858  0.98838  0.98819  0.98800  0.98780  0.98760
 *H+              0.00552  0.00561  0.00571  0.00580  0.00590  0.00600  0.00610  0.00620
 *H2              0.00001  0.00001  0.00001  0.00001  0.00001  0.00001  0.00001  0.00001

  * THERMODYNAMIC PROPERTIES FITTED TO 20000.K

 NOTE. WEIGHT FRACTION OF FUEL IN TOTAL FUELS AND OF OXIDANT IN TOTAL OXIDANTS









               THERMODYNAMIC EQUILIBRIUM PROPERTIES AT ASSIGNED

                           TEMPERATURE AND PRESSURE

 CASE =                

             REACTANT                    WT FRACTION      ENERGY      TEMP
                                          (SEE NOTE)     KJ/KG-MOL      K  
             H2                           1.0000000         0.000      0.000

 O/F=    0.00000  %FUEL=100.000000  R,EQ.RATIO= 0.000000  PHI,EQ.RATIO= 0.000000

 THERMODYNAMIC PROPERTIES

 P, BAR           0.01650  0.01650  0.01650  0.01800  0.01800  0.01800  0.01800  0.01800
 T, K             7320.00  7330.00  7340.00  7200.00  7210.00  7220.00  7230.00  7240.00
 RHO, KG/CU M    2.7154-5 2.7114-5 2.7074-5 3.0157-5 3.0113-5 3.0069-5 3.0024-5 2.9980-5
 H, KJ/KG        370285.5 370645.5 371007.7 365804.2 366134.6 366466.8 366800.8 367136.7
 U, KJ/KG        309520.7 309791.4 310064.1 306117.1 306359.6 306603.7 306849.7 307097.3
 G, KJ/KG       -1203808.-1205959.-1208110.-1172844.-1174981.-1177119.-1179257.-1181396.
 S, KJ/(KG)(K)   215.0401 215.0892 215.1386 213.7011 213.7470 213.7930 213.8392 213.8857

 M, (1/n)           1.002    1.001    1.001    1.003    1.003    1.003    1.003    1.003
 (dLV/dLP)t      -1.00316 -1.00321 -1.00326 -1.00249 -1.00253 -1.00257 -1.00261 -1.00266
 (dLV/dLT)p        1.0759   1.0770   1.0782   1.0605   1.0614   1.0624   1.0633   1.0643
 Cp, KJ/(KG)(K)   35.8975  36.1125  36.3300  32.9515  33.1311  33.3127  33.4965  33.6824
 GAMMAs            1.3596   1.3577   1.3558   1.3897   1.3877   1.3857   1.3837   1.3817
 SON VEL,M/SEC     9089.4   9089.6   9089.8   9107.6   9107.7   9107.7   9107.8   9107.9

 TRANSPORT PROPERTIES (GASES ONLY)
   CONDUCTIVITY IN UNITS OF MILLIWATTS/(CM)(K)

 VISC,MILLIPOISE  0.71488  0.71504  0.71519  0.71364  0.71396  0.71427  0.71457  0.71486

  WITH EQUILIBRIUM REACTIONS

 Cp, KJ/(KG)(K)   35.8975  36.1125  36.3300  32.9515  33.1311  33.3127  33.4965  33.6824
 CONDUCTIVITY     25.4785  25.5302  25.5821  24.8096  24.8587  24.9080  24.9574  25.0070
 PRANDTL NUMBER    1.0072   1.0114   1.0157   0.9478   0.9515   0.9553   0.9591   0.9629

  WITH FROZEN REACTIONS

 Cp, KJ/(KG)(K)   20.7612  20.7636  20.7659  20.7304  20.7323  20.7343  20.7364  20.7384
 CONDUCTIVITY     22.5938  22.6031  22.6120  22.4974  22.5114  22.5251  22.5385  22.5516
 PRANDTL NUMBER    0.6569   0.6568   0.6568   0.6576   0.6575   0.6575   0.6574   0.6574

 MOLE FRACTIONS

 *e-              0.00630  0.00640  0.00651  0.00494  0.00503  0.00511  0.00520  0.00529
 *H               0.98739  0.98718  0.98697  0.99010  0.98993  0.98976  0.98959  0.98942
 *H+              0.00630  0.00640  0.00651  0.00494  0.00503  0.00511  0.00520  0.00529
 *H2              0.00001  0.00001  0.00001  0.00001  0.00001  0.00001  0.00001  0.00001

  * THERMODYNAMIC PROPERTIES FITTED TO 20000.K

 NOTE. WEIGHT FRACTION OF FUEL IN TOTAL FUELS AND OF OXIDANT IN TOTAL OXIDANTS









               THERMODYNAMIC EQUILIBRIUM PROPERTIES AT ASSIGNED

                           TEMPERATURE AND PRESSURE

 CASE =                

             REACTANT                    WT FRACTION      ENERGY      TEMP
                                          (SEE NOTE)     KJ/KG-MOL      K  
             H2                           1.0000000         0.000      0.000

 O/F=    0.00000  %FUEL=100.000000  R,EQ.RATIO= 0.000000  PHI,EQ.RATIO= 0.000000

 THERMODYNAMIC PROPERTIES

 P, BAR           0.01800  0.01800  0.01800  0.01800  0.01800  0.01800  0.01800  0.01800
 T, K             7250.00  7260.00  7270.00  7280.00  7290.00  7300.00  7310.00  7320.00
 RHO, KG/CU M    2.9936-5 2.9892-5 2.9848-5 2.9805-5 2.9761-5 2.9717-5 2.9674-5 2.9630-5
 H, KJ/KG        367474.5 367814.1 368155.7 368499.2 368844.7 369192.1 369541.5 369893.0
 U, KJ/KG        307346.8 307598.0 307851.1 308106.0 308362.8 308621.5 308882.1 309144.5
 G, KJ/KG       -1183535.-1185674.-1187814.-1189955.-1192096.-1194237.-1196379.-1198521.
 S, KJ/(KG)(K)   213.9323 213.9791 214.0261 214.0733 214.1208 214.1684 214.2162 214.2643

 M, (1/n)           1.003    1.002    1.002    1.002    1.002    1.002    1.002    1.002
 (dLV/dLP)t      -1.00270 -1.00275 -1.00279 -1.00284 -1.00288 -1.00293 -1.00298 -1.00303
 (dLV/dLT)p        1.0653   1.0663   1.0673   1.0684   1.0694   1.0705   1.0716   1.0727
 Cp, KJ/(KG)(K)   33.8704  34.0606  34.2530  34.4476  34.6444  34.8435  35.0448  35.2484
 GAMMAs            1.3797   1.3777   1.3757   1.3737   1.3717   1.3698   1.3678   1.3659
 SON VEL,M/SEC     9108.0   9108.1   9108.3   9108.4   9108.5   9108.7   9108.9   9109.1

 TRANSPORT PROPERTIES (GASES ONLY)
   CONDUCTIVITY IN UNITS OF MILLIWATTS/(CM)(K)

 VISC,MILLIPOISE  0.71514  0.71540  0.71566  0.71591  0.71615  0.71638  0.71659  0.71680

  WITH EQUILIBRIUM REACTIONS

 Cp, KJ/(KG)(K)   33.8704  34.0606  34.2530  34.4476  34.6444  34.8435  35.0448  35.2484
 CONDUCTIVITY     25.0567  25.1066  25.1566  25.2068  25.2571  25.3076  25.3582  25.4090
 PRANDTL NUMBER    0.9667   0.9705   0.9744   0.9784   0.9823   0.9863   0.9903   0.9944

  WITH FROZEN REACTIONS

 Cp, KJ/(KG)(K)   20.7405  20.7426  20.7447  20.7468  20.7490  20.7512  20.7534  20.7556
 CONDUCTIVITY     22.5644  22.5769  22.5891  22.6010  22.6126  22.6238  22.6347  22.6453
 PRANDTL NUMBER    0.6573   0.6573   0.6572   0.6572   0.6571   0.6571   0.6570   0.6570

 MOLE FRACTIONS

 *e-              0.00537  0.00546  0.00556  0.00565  0.00574  0.00584  0.00593  0.00603
 *H               0.98924  0.98906  0.98887  0.98869  0.98850  0.98831  0.98812  0.98792
 *H+              0.00537  0.00546  0.00556  0.00565  0.00574  0.00584  0.00593  0.00603
 *H2              0.00001  0.00001  0.00001  0.00001  0.00001  0.00001  0.00001  0.00001

  * THERMODYNAMIC PROPERTIES FITTED TO 20000.K

 NOTE. WEIGHT FRACTION OF FUEL IN TOTAL FUELS AND OF OXIDANT IN TOTAL OXIDANTS









               THERMODYNAMIC EQUILIBRIUM PROPERTIES AT ASSIGNED

                           TEMPERATURE AND PRESSURE

 CASE =                

             REACTANT                    WT FRACTION      ENERGY      TEMP
                                          (SEE NOTE)     KJ/KG-MOL      K  
             H2                           1.0000000         0.000      0.000

 O/F=    0.00000  %FUEL=100.000000  R,EQ.RATIO= 0.000000  PHI,EQ.RATIO= 0.000000

 THERMODYNAMIC PROPERTIES

 P, BAR           0.01800  0.01800  0.02000  0.02000  0.02000  0.02000  0.02000  0.02000
 T, K             7330.00  7340.00  7200.00  7210.00  7220.00  7230.00  7240.00  7250.00
 RHO, KG/CU M    2.9587-5 2.9544-5 3.3517-5 3.3467-5 3.3418-5 3.3369-5 3.3321-5 3.3272-5
 H, KJ/KG        370246.5 370602.1 365433.8 365757.8 366083.6 366411.1 366740.4 367071.4
 U, KJ/KG        309409.0 309675.4 305762.0 305998.3 306236.3 306476.0 306717.3 306960.4
 G, KJ/KG       -1200664.-1202808.-1166556.-1168684.-1170812.-1172941.-1175071.-1177200.
 S, KJ/(KG)(K)   214.3125 214.3610 212.7764 212.8213 212.8665 212.9118 212.9573 213.0030

 M, (1/n)           1.002    1.002    1.003    1.003    1.003    1.003    1.003    1.003
 (dLV/dLP)t      -1.00308 -1.00313 -1.00236 -1.00240 -1.00244 -1.00248 -1.00252 -1.00257
 (dLV/dLT)p        1.0738   1.0749   1.0574   1.0583   1.0592   1.0601   1.0610   1.0620
 Cp, KJ/(KG)(K)   35.4542  35.6624  32.3203  32.4906  32.6630  32.8373  33.0136  33.1920
 GAMMAs            1.3639   1.3620   1.3973   1.3953   1.3933   1.3913   1.3893   1.3873
 SON VEL,M/SEC     9109.2   9109.5   9131.3   9131.4   9131.5   9131.6   9131.7   9131.8

 TRANSPORT PROPERTIES (GASES ONLY)
   CONDUCTIVITY IN UNITS OF MILLIWATTS/(CM)(K)

 VISC,MILLIPOISE  0.71699  0.71718  0.71546  0.71581  0.71615  0.71649  0.71681  0.71712

  WITH EQUILIBRIUM REACTIONS

 Cp, KJ/(KG)(K)   35.4542  35.6624  32.3203  32.4906  32.6630  32.8373  33.0136  33.1920
 CONDUCTIVITY     25.4599  25.5110  24.7399  24.7882  24.8366  24.8852  24.9339  24.9827
 PRANDTL NUMBER    0.9985   1.0026   0.9347   0.9382   0.9418   0.9454   0.9491   0.9528

  WITH FROZEN REACTIONS

 Cp, KJ/(KG)(K)   20.7579  20.7602  20.7251  20.7270  20.7289  20.7308  20.7328  20.7348
 CONDUCTIVITY     22.6555  22.6655  22.5442  22.5591  22.5738  22.5882  22.6023  22.6161
 PRANDTL NUMBER    0.6569   0.6569   0.6577   0.6577   0.6576   0.6576   0.6575   0.6575

 MOLE FRACTIONS

 *e-              0.00613  0.00623  0.00469  0.00477  0.00485  0.00493  0.00502  0.00510
 *H               0.98773  0.98752  0.99060  0.99044  0.99028  0.99012  0.98995  0.98978
 *H+              0.00613  0.00623  0.00469  0.00477  0.00485  0.00493  0.00502  0.00510
 *H2              0.00001  0.00001  0.00002  0.00002  0.00002  0.00002  0.00001  0.00001

  * THERMODYNAMIC PROPERTIES FITTED TO 20000.K

 NOTE. WEIGHT FRACTION OF FUEL IN TOTAL FUELS AND OF OXIDANT IN TOTAL OXIDANTS









               THERMODYNAMIC EQUILIBRIUM PROPERTIES AT ASSIGNED

                           TEMPERATURE AND PRESSURE

 CASE =                

             REACTANT                    WT FRACTION      ENERGY      TEMP
                                          (SEE NOTE)     KJ/KG-MOL      K  
             H2                           1.0000000         0.000      0.000

 O/F=    0.00000  %FUEL=100.000000  R,EQ.RATIO= 0.000000  PHI,EQ.RATIO= 0.000000

 THERMODYNAMIC PROPERTIES

 P, BAR           0.02000  0.02000  0.02000  0.02000  0.02000  0.02000  0.02000  0.02000
 T, K             7260.00  7270.00  7280.00  7290.00  7300.00  7310.00  7320.00  7330.00
 RHO, KG/CU M    3.3223-5 3.3174-5 3.3126-5 3.3078-5 3.3029-5 3.2981-5 3.2933-5 3.2885-5
 H, KJ/KG        367404.2 367738.8 368075.3 368413.6 368753.8 369096.0 369440.0 369785.9
 U, KJ/KG        307205.1 307451.5 307699.7 307949.7 308201.5 308455.0 308710.4 308967.6
 G, KJ/KG       -1179331.-1181461.-1183593.-1185724.-1187856.-1189989.-1192122.-1194255.
 S, KJ/(KG)(K)   213.0489 213.0949 213.1412 213.1876 213.2343 213.2811 213.3281 213.3754

 M, (1/n)           1.003    1.003    1.003    1.002    1.002    1.002    1.002    1.002
 (dLV/dLP)t      -1.00261 -1.00265 -1.00269 -1.00274 -1.00278 -1.00283 -1.00288 -1.00292
 (dLV/dLT)p        1.0630   1.0639   1.0649   1.0659   1.0669   1.0679   1.0690   1.0700
 Cp, KJ/(KG)(K)   33.3725  33.5550  33.7396  33.9263  34.1152  34.3061  34.4993  34.6946
 GAMMAs            1.3853   1.3833   1.3813   1.3793   1.3774   1.3754   1.3735   1.3715
 SON VEL,M/SEC     9132.0   9132.1   9132.2   9132.4   9132.6   9132.7   9132.9   9133.1

 TRANSPORT PROPERTIES (GASES ONLY)
   CONDUCTIVITY IN UNITS OF MILLIWATTS/(CM)(K)

 VISC,MILLIPOISE  0.71742  0.71771  0.71800  0.71827  0.71853  0.71879  0.71903  0.71926

  WITH EQUILIBRIUM REACTIONS

 Cp, KJ/(KG)(K)   33.3725  33.5550  33.7396  33.9263  34.1152  34.3061  34.4993  34.6946
 CONDUCTIVITY     25.0317  25.0808  25.1301  25.1795  25.2290  25.2787  25.3286  25.3785
 PRANDTL NUMBER    0.9565   0.9602   0.9640   0.9678   0.9716   0.9755   0.9794   0.9833

  WITH FROZEN REACTIONS

 Cp, KJ/(KG)(K)   20.7368  20.7388  20.7408  20.7429  20.7450  20.7471  20.7492  20.7514
 CONDUCTIVITY     22.6297  22.6429  22.6558  22.6685  22.6808  22.6928  22.7045  22.7159
 PRANDTL NUMBER    0.6574   0.6574   0.6573   0.6573   0.6572   0.6572   0.6571   0.6571

 MOLE FRACTIONS

 *e-              0.00519  0.00527  0.00536  0.00545  0.00554  0.00563  0.00572  0.00582
 *H               0.98961  0.98944  0.98927  0.98909  0.98891  0.98872  0.98854  0.98835
 *H+              0.00519  0.00527  0.00536  0.00545  0.00554  0.00563  0.00572  0.00582
 *H2              0.00001  0.00001  0.00001  0.00001  0.00001  0.00001  0.00001  0.00001

  * THERMODYNAMIC PROPERTIES FITTED TO 20000.K

 NOTE. WEIGHT FRACTION OF FUEL IN TOTAL FUELS AND OF OXIDANT IN TOTAL OXIDANTS









               THERMODYNAMIC EQUILIBRIUM PROPERTIES AT ASSIGNED

                           TEMPERATURE AND PRESSURE

 CASE =                

             REACTANT                    WT FRACTION      ENERGY      TEMP
                                          (SEE NOTE)     KJ/KG-MOL      K  
             H2                           1.0000000         0.000      0.000

 O/F=    0.00000  %FUEL=100.000000  R,EQ.RATIO= 0.000000  PHI,EQ.RATIO= 0.000000

 THERMODYNAMIC PROPERTIES

 P, BAR           0.02000
 T, K             7340.00
 RHO, KG/CU M    3.2837-5
 H, KJ/KG        370133.9
 U, KJ/KG        309226.7
 G, KJ/KG       -1196389.
 S, KJ/(KG)(K)   213.4228

 M, (1/n)           1.002
 (dLV/dLP)t      -1.00297
 (dLV/dLT)p        1.0711
 Cp, KJ/(KG)(K)   34.8921
 GAMMAs            1.3696
 SON VEL,M/SEC     9133.3

 TRANSPORT PROPERTIES (GASES ONLY)
   CONDUCTIVITY IN UNITS OF MILLIWATTS/(CM)(K)

 VISC,MILLIPOISE  0.71948

  WITH EQUILIBRIUM REACTIONS

 Cp, KJ/(KG)(K)   34.8921
 CONDUCTIVITY     25.4287
 PRANDTL NUMBER    0.9872

  WITH FROZEN REACTIONS

 Cp, KJ/(KG)(K)   20.7536
 CONDUCTIVITY     22.7270
 PRANDTL NUMBER    0.6570

 MOLE FRACTIONS

 *e-              0.00591
 *H               0.98816
 *H+              0.00591
 *H2              0.00001

  * THERMODYNAMIC PROPERTIES FITTED TO 20000.K

 NOTE. WEIGHT FRACTION OF FUEL IN TOTAL FUELS AND OF OXIDANT IN TOTAL OXIDANTS



  
