
 *******************************************************************************

         NASA-GLENN CHEMICAL EQUILIBRIUM PROGRAM CEA2, MAY 21, 2004
                   BY  BONNIE MCBRIDE AND SANFORD GORDON
      REFS: NASA RP-1311, PART I, 1994 AND NASA RP-1311, PART II, 1996

 *******************************************************************************



  prob tp ions
  p,bar= 0.001,0.0011,0.0012,0.00132,0.00148,0.00165,0.0018,0.002,0.00225,0.0025,
 0.0028,0.0031,0.0035,0.0039,0.0044
  t,k= 1050,1060,1070,1080,1090,1100,1110,1120,1130,1140,1150,1160,1170,1180,1190
  
  reac
  na H2                wt%=100.0000
  
  output short
  output siunits
  output transport
  
 end





               THERMODYNAMIC EQUILIBRIUM PROPERTIES AT ASSIGNED

                           TEMPERATURE AND PRESSURE

 CASE =                

             REACTANT                    WT FRACTION      ENERGY      TEMP
                                          (SEE NOTE)     KJ/KG-MOL      K  
             H2                           1.0000000         0.000      0.000

 O/F=    0.00000  %FUEL=100.000000  R,EQ.RATIO= 0.000000  PHI,EQ.RATIO= 0.000000

 THERMODYNAMIC PROPERTIES

 P, BAR           0.00100  0.00100  0.00100  0.00100  0.00100  0.00100  0.00100  0.00100
 T, K             1050.00  1060.00  1070.00  1080.00  1090.00  1100.00  1110.00  1120.00
 RHO, KG/CU M    2.3091-5 2.2873-5 2.2659-5 2.2449-5 2.2243-5 2.2041-5 2.1843-5 2.1648-5
 H, KJ/KG         11009.4  11160.2  11311.1  11462.3  11613.7  11765.2  11917.0  12068.9
 U, KJ/KG         6678.66  6788.20  6897.93  7007.85  7117.96  7228.27  7338.78  7449.49
 G, KJ/KG       -106252.6-107370.0-108488.8-109609.1-110730.8-111854.0-112978.5-114104.3
 S, KJ/(KG)(K)   111.6781 111.8209 111.9626 112.1032 112.2427 112.3811 112.5184 112.6547

 M, (1/n)           2.016    2.016    2.016    2.016    2.016    2.016    2.016    2.016
 (dLV/dLP)t      -1.00000 -1.00000 -1.00000 -1.00000 -1.00000 -1.00000 -1.00000 -1.00000
 (dLV/dLT)p        1.0000   1.0000   1.0000   1.0000   1.0000   1.0000   1.0000   1.0000
 Cp, KJ/(KG)(K)   15.0698  15.0881  15.1069  15.1260  15.1455  15.1653  15.1854  15.2059
 GAMMAs            1.3768   1.3762   1.3756   1.3749   1.3743   1.3736   1.3729   1.3722
 SON VEL,M/SEC     2441.9   2452.9   2463.9   2474.8   2485.6   2496.4   2507.1   2517.7

 TRANSPORT PROPERTIES (GASES ONLY)
   CONDUCTIVITY IN UNITS OF MILLIWATTS/(CM)(K)

 VISC,MILLIPOISE  0.21277  0.21419  0.21560  0.21701  0.21841  0.21980  0.22120  0.22258

  WITH EQUILIBRIUM REACTIONS

 Cp, KJ/(KG)(K)   15.0698  15.0881  15.1069  15.1260  15.1455  15.1653  15.1854  15.2059
 CONDUCTIVITY      4.6146   4.6498   4.6851   4.7205   4.7560   4.7916   4.8273   4.8630
 PRANDTL NUMBER    0.6948   0.6950   0.6952   0.6954   0.6955   0.6957   0.6958   0.6960

  WITH FROZEN REACTIONS

 Cp, KJ/(KG)(K)   15.0691  15.0873  15.1058  15.1247  15.1438  15.1633  15.1830  15.2029
 CONDUCTIVITY      4.6142   4.6493   4.6845   4.7198   4.7551   4.7905   4.8259   4.8614
 PRANDTL NUMBER    0.6949   0.6950   0.6952   0.6954   0.6956   0.6957   0.6959   0.6961

 MOLE FRACTIONS

 *H2              1.00000  1.00000  1.00000  1.00000  1.00000  1.00000  1.00000  1.00000

  * THERMODYNAMIC PROPERTIES FITTED TO 20000.K

 NOTE. WEIGHT FRACTION OF FUEL IN TOTAL FUELS AND OF OXIDANT IN TOTAL OXIDANTS









               THERMODYNAMIC EQUILIBRIUM PROPERTIES AT ASSIGNED

                           TEMPERATURE AND PRESSURE

 CASE =                

             REACTANT                    WT FRACTION      ENERGY      TEMP
                                          (SEE NOTE)     KJ/KG-MOL      K  
             H2                           1.0000000         0.000      0.000

 O/F=    0.00000  %FUEL=100.000000  R,EQ.RATIO= 0.000000  PHI,EQ.RATIO= 0.000000

 THERMODYNAMIC PROPERTIES

 P, BAR           0.00100  0.00100  0.00100  0.00100  0.00100  0.00100  0.00100  0.00110
 T, K             1130.00  1140.00  1150.00  1160.00  1170.00  1180.00  1190.00  1050.00
 RHO, KG/CU M    2.1456-5 2.1268-5 2.1083-5 2.0901-5 2.0723-5 2.0547-5 2.0374-5 2.5400-5
 H, KJ/KG         12221.1  12373.5  12526.0  12678.8  12831.9  12985.1  13138.6  11009.4
 U, KJ/KG         7560.40  7671.53  7782.87  7894.43  8006.20  8118.20  8230.43  6678.66
 G, KJ/KG       -115231.6-116360.1-117490.0-118621.3-119753.8-120887.7-122022.9-105839.7
 S, KJ/(KG)(K)   112.7899 112.9242 113.0575 113.1898 113.3211 113.4515 113.5810 111.2848

 M, (1/n)           2.016    2.016    2.016    2.016    2.016    2.016    2.016    2.016
 (dLV/dLP)t      -1.00000 -1.00000 -1.00000 -1.00000 -1.00000 -1.00000 -1.00000 -1.00000
 (dLV/dLT)p        1.0000   1.0000   1.0000   1.0000   1.0000   1.0000   1.0001   1.0000
 Cp, KJ/(KG)(K)   15.2267  15.2479  15.2694  15.2912  15.3134  15.3359  15.3589  15.0697
 GAMMAs            1.3715   1.3708   1.3701   1.3694   1.3687   1.3679   1.3672   1.3768
 SON VEL,M/SEC     2528.3   2538.8   2549.3   2559.6   2570.0   2580.2   2590.4   2441.9

 TRANSPORT PROPERTIES (GASES ONLY)
   CONDUCTIVITY IN UNITS OF MILLIWATTS/(CM)(K)

 VISC,MILLIPOISE  0.22396  0.22534  0.22671  0.22808  0.22944  0.23080  0.23215  0.21277

  WITH EQUILIBRIUM REACTIONS

 Cp, KJ/(KG)(K)   15.2267  15.2479  15.2694  15.2912  15.3134  15.3359  15.3589  15.0697
 CONDUCTIVITY      4.8989   4.9349   4.9711   5.0073   5.0438   5.0804   5.1172   4.6145
 PRANDTL NUMBER    0.6961   0.6962   0.6964   0.6965   0.6966   0.6967   0.6968   0.6948

  WITH FROZEN REACTIONS

 Cp, KJ/(KG)(K)   15.2231  15.2435  15.2641  15.2848  15.3057  15.3268  15.3480  15.0691
 CONDUCTIVITY      4.8969   4.9324   4.9680   5.0036   5.0393   5.0750   5.1107   4.6141
 PRANDTL NUMBER    0.6962   0.6964   0.6966   0.6967   0.6969   0.6970   0.6972   0.6949

 MOLE FRACTIONS

 *H               0.00000  0.00000  0.00000  0.00000  0.00000  0.00000  0.00001  0.00000
 *H2              1.00000  1.00000  1.00000  1.00000  1.00000  1.00000  0.99999  1.00000

  * THERMODYNAMIC PROPERTIES FITTED TO 20000.K

 NOTE. WEIGHT FRACTION OF FUEL IN TOTAL FUELS AND OF OXIDANT IN TOTAL OXIDANTS









               THERMODYNAMIC EQUILIBRIUM PROPERTIES AT ASSIGNED

                           TEMPERATURE AND PRESSURE

 CASE =                

             REACTANT                    WT FRACTION      ENERGY      TEMP
                                          (SEE NOTE)     KJ/KG-MOL      K  
             H2                           1.0000000         0.000      0.000

 O/F=    0.00000  %FUEL=100.000000  R,EQ.RATIO= 0.000000  PHI,EQ.RATIO= 0.000000

 THERMODYNAMIC PROPERTIES

 P, BAR           0.00110  0.00110  0.00110  0.00110  0.00110  0.00110  0.00110  0.00110
 T, K             1060.00  1070.00  1080.00  1090.00  1100.00  1110.00  1120.00  1130.00
 RHO, KG/CU M    2.5160-5 2.4925-5 2.4694-5 2.4468-5 2.4245-5 2.4027-5 2.3812-5 2.3602-5
 H, KJ/KG         11160.2  11311.1  11462.3  11613.7  11765.2  11917.0  12068.9  12221.1
 U, KJ/KG         6788.20  6897.93  7007.85  7117.96  7228.26  7338.77  7449.48  7560.40
 G, KJ/KG       -106953.2-108068.2-109184.6-110302.4-111421.5-112542.1-113664.0-114787.3
 S, KJ/(KG)(K)   111.4277 111.5694 111.7101 111.8495 111.9880 112.1253 112.2616 112.3968

 M, (1/n)           2.016    2.016    2.016    2.016    2.016    2.016    2.016    2.016
 (dLV/dLP)t      -1.00000 -1.00000 -1.00000 -1.00000 -1.00000 -1.00000 -1.00000 -1.00000
 (dLV/dLT)p        1.0000   1.0000   1.0000   1.0000   1.0000   1.0000   1.0000   1.0000
 Cp, KJ/(KG)(K)   15.0881  15.1068  15.1259  15.1454  15.1652  15.1853  15.2058  15.2266
 GAMMAs            1.3762   1.3756   1.3749   1.3743   1.3736   1.3729   1.3722   1.3715
 SON VEL,M/SEC     2452.9   2463.9   2474.8   2485.6   2496.4   2507.1   2517.7   2528.3

 TRANSPORT PROPERTIES (GASES ONLY)
   CONDUCTIVITY IN UNITS OF MILLIWATTS/(CM)(K)

 VISC,MILLIPOISE  0.21419  0.21560  0.21701  0.21841  0.21980  0.22120  0.22258  0.22396

  WITH EQUILIBRIUM REACTIONS

 Cp, KJ/(KG)(K)   15.0881  15.1068  15.1259  15.1454  15.1652  15.1853  15.2058  15.2266
 CONDUCTIVITY      4.6497   4.6851   4.7205   4.7560   4.7915   4.8272   4.8630   4.8988
 PRANDTL NUMBER    0.6950   0.6952   0.6954   0.6955   0.6957   0.6958   0.6960   0.6961

  WITH FROZEN REACTIONS

 Cp, KJ/(KG)(K)   15.0872  15.1058  15.1247  15.1438  15.1633  15.1830  15.2029  15.2231
 CONDUCTIVITY      4.6493   4.6845   4.7198   4.7551   4.7905   4.8259   4.8614   4.8969
 PRANDTL NUMBER    0.6951   0.6952   0.6954   0.6956   0.6957   0.6959   0.6961   0.6962

 MOLE FRACTIONS

 *H2              1.00000  1.00000  1.00000  1.00000  1.00000  1.00000  1.00000  1.00000

  * THERMODYNAMIC PROPERTIES FITTED TO 20000.K

 NOTE. WEIGHT FRACTION OF FUEL IN TOTAL FUELS AND OF OXIDANT IN TOTAL OXIDANTS









               THERMODYNAMIC EQUILIBRIUM PROPERTIES AT ASSIGNED

                           TEMPERATURE AND PRESSURE

 CASE =                

             REACTANT                    WT FRACTION      ENERGY      TEMP
                                          (SEE NOTE)     KJ/KG-MOL      K  
             H2                           1.0000000         0.000      0.000

 O/F=    0.00000  %FUEL=100.000000  R,EQ.RATIO= 0.000000  PHI,EQ.RATIO= 0.000000

 THERMODYNAMIC PROPERTIES

 P, BAR           0.00110  0.00110  0.00110  0.00110  0.00110  0.00110  0.00120  0.00120
 T, K             1140.00  1150.00  1160.00  1170.00  1180.00  1190.00  1050.00  1060.00
 RHO, KG/CU M    2.3395-5 2.3191-5 2.2991-5 2.2795-5 2.2602-5 2.2412-5 2.7709-5 2.7448-5
 H, KJ/KG         12373.4  12526.0  12678.8  12831.8  12985.1  13138.6  11009.4  11160.2
 U, KJ/KG         7671.52  7782.86  7894.41  8006.19  8118.18  8230.40  6678.65  6788.20
 G, KJ/KG       -115912.0-117038.0-118165.3-119293.9-120423.8-121555.1-105462.9-106572.8
 S, KJ/(KG)(K)   112.5311 112.6643 112.7966 112.9280 113.0584 113.1879 110.9260 111.0688

 M, (1/n)           2.016    2.016    2.016    2.016    2.016    2.016    2.016    2.016
 (dLV/dLP)t      -1.00000 -1.00000 -1.00000 -1.00000 -1.00000 -1.00000 -1.00000 -1.00000
 (dLV/dLT)p        1.0000   1.0000   1.0000   1.0000   1.0000   1.0001   1.0000   1.0000
 Cp, KJ/(KG)(K)   15.2477  15.2691  15.2909  15.3130  15.3355  15.3583  15.0697  15.0880
 GAMMAs            1.3708   1.3701   1.3694   1.3687   1.3680   1.3672   1.3768   1.3762
 SON VEL,M/SEC     2538.8   2549.3   2559.6   2570.0   2580.2   2590.5   2441.9   2452.9

 TRANSPORT PROPERTIES (GASES ONLY)
   CONDUCTIVITY IN UNITS OF MILLIWATTS/(CM)(K)

 VISC,MILLIPOISE  0.22534  0.22671  0.22808  0.22944  0.23080  0.23215  0.21277  0.21419

  WITH EQUILIBRIUM REACTIONS

 Cp, KJ/(KG)(K)   15.2477  15.2691  15.2909  15.3130  15.3355  15.3583  15.0697  15.0880
 CONDUCTIVITY      4.9348   4.9709   5.0072   5.0436   5.0801   5.1169   4.6145   4.6497
 PRANDTL NUMBER    0.6963   0.6964   0.6965   0.6966   0.6967   0.6968   0.6948   0.6950

  WITH FROZEN REACTIONS

 Cp, KJ/(KG)(K)   15.2435  15.2641  15.2848  15.3057  15.3268  15.3480  15.0691  15.0872
 CONDUCTIVITY      4.9324   4.9680   5.0036   5.0393   5.0750   5.1107   4.6141   4.6493
 PRANDTL NUMBER    0.6964   0.6966   0.6967   0.6969   0.6970   0.6972   0.6949   0.6951

 MOLE FRACTIONS

 *H2              1.00000  1.00000  1.00000  1.00000  1.00000  1.00000  1.00000  1.00000

  * THERMODYNAMIC PROPERTIES FITTED TO 20000.K

 NOTE. WEIGHT FRACTION OF FUEL IN TOTAL FUELS AND OF OXIDANT IN TOTAL OXIDANTS









               THERMODYNAMIC EQUILIBRIUM PROPERTIES AT ASSIGNED

                           TEMPERATURE AND PRESSURE

 CASE =                

             REACTANT                    WT FRACTION      ENERGY      TEMP
                                          (SEE NOTE)     KJ/KG-MOL      K  
             H2                           1.0000000         0.000      0.000

 O/F=    0.00000  %FUEL=100.000000  R,EQ.RATIO= 0.000000  PHI,EQ.RATIO= 0.000000

 THERMODYNAMIC PROPERTIES

 P, BAR           0.00120  0.00120  0.00120  0.00120  0.00120  0.00120  0.00120  0.00120
 T, K             1070.00  1080.00  1090.00  1100.00  1110.00  1120.00  1130.00  1140.00
 RHO, KG/CU M    2.7191-5 2.6939-5 2.6692-5 2.6450-5 2.6211-5 2.5977-5 2.5747-5 2.5521-5
 H, KJ/KG         11311.1  11462.3  11613.6  11765.2  11917.0  12068.9  12221.1  12373.4
 U, KJ/KG         6897.93  7007.84  7117.95  7228.26  7338.77  7449.47  7560.39  7671.51
 G, KJ/KG       -107684.2-108797.0-109911.2-111026.8-112143.8-113262.1-114381.8-115502.9
 S, KJ/(KG)(K)   111.2106 111.3512 111.4907 111.6291 111.7664 111.9027 112.0379 112.1722

 M, (1/n)           2.016    2.016    2.016    2.016    2.016    2.016    2.016    2.016
 (dLV/dLP)t      -1.00000 -1.00000 -1.00000 -1.00000 -1.00000 -1.00000 -1.00000 -1.00000
 (dLV/dLT)p        1.0000   1.0000   1.0000   1.0000   1.0000   1.0000   1.0000   1.0000
 Cp, KJ/(KG)(K)   15.1068  15.1259  15.1453  15.1651  15.1852  15.2057  15.2264  15.2475
 GAMMAs            1.3756   1.3749   1.3743   1.3736   1.3729   1.3722   1.3715   1.3708
 SON VEL,M/SEC     2463.9   2474.8   2485.6   2496.4   2507.1   2517.7   2528.3   2538.8

 TRANSPORT PROPERTIES (GASES ONLY)
   CONDUCTIVITY IN UNITS OF MILLIWATTS/(CM)(K)

 VISC,MILLIPOISE  0.21560  0.21701  0.21841  0.21980  0.22120  0.22258  0.22396  0.22534

  WITH EQUILIBRIUM REACTIONS

 Cp, KJ/(KG)(K)   15.1068  15.1259  15.1453  15.1651  15.1852  15.2057  15.2264  15.2475
 CONDUCTIVITY      4.6850   4.7204   4.7559   4.7915   4.8272   4.8629   4.8987   4.9347
 PRANDTL NUMBER    0.6952   0.6954   0.6955   0.6957   0.6958   0.6960   0.6961   0.6963

  WITH FROZEN REACTIONS

 Cp, KJ/(KG)(K)   15.1058  15.1247  15.1438  15.1633  15.1830  15.2029  15.2231  15.2435
 CONDUCTIVITY      4.6845   4.7198   4.7551   4.7905   4.8259   4.8614   4.8969   4.9324
 PRANDTL NUMBER    0.6952   0.6954   0.6956   0.6957   0.6959   0.6961   0.6962   0.6964

 MOLE FRACTIONS

 *H2              1.00000  1.00000  1.00000  1.00000  1.00000  1.00000  1.00000  1.00000

  * THERMODYNAMIC PROPERTIES FITTED TO 20000.K

 NOTE. WEIGHT FRACTION OF FUEL IN TOTAL FUELS AND OF OXIDANT IN TOTAL OXIDANTS









               THERMODYNAMIC EQUILIBRIUM PROPERTIES AT ASSIGNED

                           TEMPERATURE AND PRESSURE

 CASE =                

             REACTANT                    WT FRACTION      ENERGY      TEMP
                                          (SEE NOTE)     KJ/KG-MOL      K  
             H2                           1.0000000         0.000      0.000

 O/F=    0.00000  %FUEL=100.000000  R,EQ.RATIO= 0.000000  PHI,EQ.RATIO= 0.000000

 THERMODYNAMIC PROPERTIES

 P, BAR           0.00120  0.00120  0.00120  0.00120  0.00120  0.00132  0.00132  0.00132
 T, K             1150.00  1160.00  1170.00  1180.00  1190.00  1050.00  1060.00  1070.00
 RHO, KG/CU M    2.5300-5 2.5081-5 2.4867-5 2.4656-5 2.4449-5 3.0480-5 3.0192-5 2.9910-5
 H, KJ/KG         12526.0  12678.8  12831.8  12985.1  13138.5  11009.4  11160.2  11311.1
 U, KJ/KG         7782.85  7894.40  8006.17  8118.16  8230.38  6678.65  6788.20  6897.92
 G, KJ/KG       -116625.2-117749.0-118874.0-120000.3-121128.0-105050.1-106156.1-107263.5
 S, KJ/(KG)(K)   112.3054 112.4377 112.5691 112.6995 112.8290 110.5329 110.6757 110.8175

 M, (1/n)           2.016    2.016    2.016    2.016    2.016    2.016    2.016    2.016
 (dLV/dLP)t      -1.00000 -1.00000 -1.00000 -1.00000 -1.00000 -1.00000 -1.00000 -1.00000
 (dLV/dLT)p        1.0000   1.0000   1.0000   1.0000   1.0001   1.0000   1.0000   1.0000
 Cp, KJ/(KG)(K)   15.2689  15.2906  15.3127  15.3351  15.3579  15.0697  15.0880  15.1067
 GAMMAs            1.3701   1.3694   1.3687   1.3680   1.3672   1.3768   1.3762   1.3756
 SON VEL,M/SEC     2549.3   2559.7   2570.0   2580.3   2590.5   2441.9   2452.9   2463.9

 TRANSPORT PROPERTIES (GASES ONLY)
   CONDUCTIVITY IN UNITS OF MILLIWATTS/(CM)(K)

 VISC,MILLIPOISE  0.22671  0.22808  0.22944  0.23080  0.23215  0.21277  0.21419  0.21560

  WITH EQUILIBRIUM REACTIONS

 Cp, KJ/(KG)(K)   15.2689  15.2906  15.3127  15.3351  15.3579  15.0697  15.0880  15.1067
 CONDUCTIVITY      4.9708   5.0070   5.0434   5.0799   5.1166   4.6144   4.6497   4.6850
 PRANDTL NUMBER    0.6964   0.6965   0.6966   0.6967   0.6968   0.6948   0.6950   0.6952

  WITH FROZEN REACTIONS

 Cp, KJ/(KG)(K)   15.2641  15.2848  15.3057  15.3268  15.3480  15.0691  15.0872  15.1058
 CONDUCTIVITY      4.9680   5.0036   5.0393   5.0750   5.1107   4.6141   4.6493   4.6845
 PRANDTL NUMBER    0.6966   0.6967   0.6969   0.6970   0.6972   0.6949   0.6951   0.6952

 MOLE FRACTIONS

 *H2              1.00000  1.00000  1.00000  1.00000  1.00000  1.00000  1.00000  1.00000

  * THERMODYNAMIC PROPERTIES FITTED TO 20000.K

 NOTE. WEIGHT FRACTION OF FUEL IN TOTAL FUELS AND OF OXIDANT IN TOTAL OXIDANTS









               THERMODYNAMIC EQUILIBRIUM PROPERTIES AT ASSIGNED

                           TEMPERATURE AND PRESSURE

 CASE =                

             REACTANT                    WT FRACTION      ENERGY      TEMP
                                          (SEE NOTE)     KJ/KG-MOL      K  
             H2                           1.0000000         0.000      0.000

 O/F=    0.00000  %FUEL=100.000000  R,EQ.RATIO= 0.000000  PHI,EQ.RATIO= 0.000000

 THERMODYNAMIC PROPERTIES

 P, BAR           0.00132  0.00132  0.00132  0.00132  0.00132  0.00132  0.00132  0.00132
 T, K             1080.00  1090.00  1100.00  1110.00  1120.00  1130.00  1140.00  1150.00
 RHO, KG/CU M    2.9633-5 2.9361-5 2.9094-5 2.8832-5 2.8575-5 2.8322-5 2.8074-5 2.7829-5
 H, KJ/KG         11462.3  11613.6  11765.2  11916.9  12068.9  12221.1  12373.4  12526.0
 U, KJ/KG         7007.84  7117.95  7228.26  7338.76  7449.47  7560.38  7671.50  7782.84
 G, KJ/KG       -108372.4-109482.7-110594.4-111707.4-112821.8-113937.6-115054.7-116173.2
 S, KJ/(KG)(K)   110.9581 111.0976 111.2360 111.3733 111.5096 111.6448 111.7791 111.9123

 M, (1/n)           2.016    2.016    2.016    2.016    2.016    2.016    2.016    2.016
 (dLV/dLP)t      -1.00000 -1.00000 -1.00000 -1.00000 -1.00000 -1.00000 -1.00000 -1.00000
 (dLV/dLT)p        1.0000   1.0000   1.0000   1.0000   1.0000   1.0000   1.0000   1.0000
 Cp, KJ/(KG)(K)   15.1258  15.1452  15.1650  15.1851  15.2055  15.2263  15.2473  15.2687
 GAMMAs            1.3749   1.3743   1.3736   1.3729   1.3722   1.3715   1.3708   1.3701
 SON VEL,M/SEC     2474.8   2485.6   2496.4   2507.1   2517.7   2528.3   2538.8   2549.3

 TRANSPORT PROPERTIES (GASES ONLY)
   CONDUCTIVITY IN UNITS OF MILLIWATTS/(CM)(K)

 VISC,MILLIPOISE  0.21701  0.21841  0.21980  0.22120  0.22258  0.22396  0.22534  0.22671

  WITH EQUILIBRIUM REACTIONS

 Cp, KJ/(KG)(K)   15.1258  15.1452  15.1650  15.1851  15.2055  15.2263  15.2473  15.2687
 CONDUCTIVITY      4.7204   4.7559   4.7915   4.8271   4.8628   4.8987   4.9346   4.9707
 PRANDTL NUMBER    0.6954   0.6955   0.6957   0.6958   0.6960   0.6961   0.6963   0.6964

  WITH FROZEN REACTIONS

 Cp, KJ/(KG)(K)   15.1247  15.1438  15.1633  15.1830  15.2029  15.2231  15.2435  15.2641
 CONDUCTIVITY      4.7198   4.7551   4.7905   4.8259   4.8614   4.8969   4.9324   4.9680
 PRANDTL NUMBER    0.6954   0.6956   0.6957   0.6959   0.6961   0.6962   0.6964   0.6966

 MOLE FRACTIONS

 *H2              1.00000  1.00000  1.00000  1.00000  1.00000  1.00000  1.00000  1.00000

  * THERMODYNAMIC PROPERTIES FITTED TO 20000.K

 NOTE. WEIGHT FRACTION OF FUEL IN TOTAL FUELS AND OF OXIDANT IN TOTAL OXIDANTS









               THERMODYNAMIC EQUILIBRIUM PROPERTIES AT ASSIGNED

                           TEMPERATURE AND PRESSURE

 CASE =                

             REACTANT                    WT FRACTION      ENERGY      TEMP
                                          (SEE NOTE)     KJ/KG-MOL      K  
             H2                           1.0000000         0.000      0.000

 O/F=    0.00000  %FUEL=100.000000  R,EQ.RATIO= 0.000000  PHI,EQ.RATIO= 0.000000

 THERMODYNAMIC PROPERTIES

 P, BAR           0.00132  0.00132  0.00132  0.00132  0.00148  0.00148  0.00148  0.00148
 T, K             1160.00  1170.00  1180.00  1190.00  1050.00  1060.00  1070.00  1080.00
 RHO, KG/CU M    2.7590-5 2.7354-5 2.7122-5 2.6894-5 3.4174-5 3.3852-5 3.3536-5 3.3225-5
 H, KJ/KG         12678.8  12831.8  12985.1  13138.5  11009.4  11160.2  11311.1  11462.3
 U, KJ/KG         7894.39  8006.15  8118.14  8230.36  6678.65  6788.19  6897.92  7007.84
 G, KJ/KG       -117293.0-118414.1-119536.5-120660.2-104554.6-105655.9-106758.6-107862.8
 S, KJ/(KG)(K)   112.0446 112.1760 112.3064 112.4359 110.0610 110.2038 110.3456 110.4862

 M, (1/n)           2.016    2.016    2.016    2.016    2.016    2.016    2.016    2.016
 (dLV/dLP)t      -1.00000 -1.00000 -1.00000 -1.00000 -1.00000 -1.00000 -1.00000 -1.00000
 (dLV/dLT)p        1.0000   1.0000   1.0000   1.0001   1.0000   1.0000   1.0000   1.0000
 Cp, KJ/(KG)(K)   15.2904  15.3124  15.3347  15.3574  15.0696  15.0880  15.1067  15.1257
 GAMMAs            1.3694   1.3687   1.3680   1.3672   1.3768   1.3762   1.3756   1.3749
 SON VEL,M/SEC     2559.7   2570.0   2580.3   2590.5   2441.9   2452.9   2463.9   2474.8

 TRANSPORT PROPERTIES (GASES ONLY)
   CONDUCTIVITY IN UNITS OF MILLIWATTS/(CM)(K)

 VISC,MILLIPOISE  0.22808  0.22944  0.23080  0.23215  0.21277  0.21419  0.21560  0.21701

  WITH EQUILIBRIUM REACTIONS

 Cp, KJ/(KG)(K)   15.2904  15.3124  15.3347  15.3574  15.0696  15.0880  15.1067  15.1257
 CONDUCTIVITY      5.0068   5.0432   5.0797   5.1164   4.6144   4.6497   4.6850   4.7204
 PRANDTL NUMBER    0.6965   0.6966   0.6967   0.6968   0.6949   0.6950   0.6952   0.6954

  WITH FROZEN REACTIONS

 Cp, KJ/(KG)(K)   15.2848  15.3057  15.3268  15.3480  15.0691  15.0872  15.1058  15.1247
 CONDUCTIVITY      5.0036   5.0393   5.0750   5.1107   4.6141   4.6493   4.6845   4.7198
 PRANDTL NUMBER    0.6967   0.6969   0.6970   0.6972   0.6949   0.6951   0.6952   0.6954

 MOLE FRACTIONS

 *H2              1.00000  1.00000  1.00000  1.00000  1.00000  1.00000  1.00000  1.00000

  * THERMODYNAMIC PROPERTIES FITTED TO 20000.K

 NOTE. WEIGHT FRACTION OF FUEL IN TOTAL FUELS AND OF OXIDANT IN TOTAL OXIDANTS









               THERMODYNAMIC EQUILIBRIUM PROPERTIES AT ASSIGNED

                           TEMPERATURE AND PRESSURE

 CASE =                

             REACTANT                    WT FRACTION      ENERGY      TEMP
                                          (SEE NOTE)     KJ/KG-MOL      K  
             H2                           1.0000000         0.000      0.000

 O/F=    0.00000  %FUEL=100.000000  R,EQ.RATIO= 0.000000  PHI,EQ.RATIO= 0.000000

 THERMODYNAMIC PROPERTIES

 P, BAR           0.00148  0.00148  0.00148  0.00148  0.00148  0.00148  0.00148  0.00148
 T, K             1090.00  1100.00  1110.00  1120.00  1130.00  1140.00  1150.00  1160.00
 RHO, KG/CU M    3.2920-5 3.2621-5 3.2327-5 3.2039-5 3.1755-5 3.1476-5 3.1203-5 3.0934-5
 H, KJ/KG         11613.6  11765.2  11916.9  12068.9  12221.1  12373.4  12526.0  12678.8
 U, KJ/KG         7117.95  7228.25  7338.76  7449.46  7560.37  7671.49  7782.83  7894.37
 G, KJ/KG       -108968.3-110075.3-111183.6-112293.3-113404.4-114516.8-115630.5-116745.6
 S, KJ/(KG)(K)   110.6257 110.7641 110.9014 111.0377 111.1729 111.3072 111.4404 111.5727

 M, (1/n)           2.016    2.016    2.016    2.016    2.016    2.016    2.016    2.016
 (dLV/dLP)t      -1.00000 -1.00000 -1.00000 -1.00000 -1.00000 -1.00000 -1.00000 -1.00000
 (dLV/dLT)p        1.0000   1.0000   1.0000   1.0000   1.0000   1.0000   1.0000   1.0000
 Cp, KJ/(KG)(K)   15.1452  15.1649  15.1850  15.2054  15.2261  15.2471  15.2684  15.2900
 GAMMAs            1.3743   1.3736   1.3729   1.3722   1.3715   1.3708   1.3701   1.3694
 SON VEL,M/SEC     2485.6   2496.4   2507.1   2517.7   2528.3   2538.8   2549.3   2559.7

 TRANSPORT PROPERTIES (GASES ONLY)
   CONDUCTIVITY IN UNITS OF MILLIWATTS/(CM)(K)

 VISC,MILLIPOISE  0.21841  0.21980  0.22120  0.22258  0.22396  0.22534  0.22671  0.22808

  WITH EQUILIBRIUM REACTIONS

 Cp, KJ/(KG)(K)   15.1452  15.1649  15.1850  15.2054  15.2261  15.2471  15.2684  15.2900
 CONDUCTIVITY      4.7559   4.7914   4.8270   4.8627   4.8986   4.9345   4.9705   5.0067
 PRANDTL NUMBER    0.6955   0.6957   0.6958   0.6960   0.6961   0.6963   0.6964   0.6965

  WITH FROZEN REACTIONS

 Cp, KJ/(KG)(K)   15.1438  15.1633  15.1830  15.2029  15.2231  15.2435  15.2641  15.2848
 CONDUCTIVITY      4.7551   4.7905   4.8259   4.8614   4.8969   4.9324   4.9680   5.0036
 PRANDTL NUMBER    0.6956   0.6957   0.6959   0.6961   0.6962   0.6964   0.6966   0.6967

 MOLE FRACTIONS

 *H2              1.00000  1.00000  1.00000  1.00000  1.00000  1.00000  1.00000  1.00000

  * THERMODYNAMIC PROPERTIES FITTED TO 20000.K

 NOTE. WEIGHT FRACTION OF FUEL IN TOTAL FUELS AND OF OXIDANT IN TOTAL OXIDANTS









               THERMODYNAMIC EQUILIBRIUM PROPERTIES AT ASSIGNED

                           TEMPERATURE AND PRESSURE

 CASE =                

             REACTANT                    WT FRACTION      ENERGY      TEMP
                                          (SEE NOTE)     KJ/KG-MOL      K  
             H2                           1.0000000         0.000      0.000

 O/F=    0.00000  %FUEL=100.000000  R,EQ.RATIO= 0.000000  PHI,EQ.RATIO= 0.000000

 THERMODYNAMIC PROPERTIES

 P, BAR           0.00148  0.00148  0.00148  0.00165  0.00165  0.00165  0.00165  0.00165
 T, K             1170.00  1180.00  1190.00  1050.00  1060.00  1070.00  1080.00  1090.00
 RHO, KG/CU M    3.0669-5 3.0409-5 3.0154-5 3.8100-5 3.7740-5 3.7388-5 3.7042-5 3.6702-5
 H, KJ/KG         12831.8  12985.0  13138.5  11009.4  11160.2  11311.1  11462.3  11613.6
 U, KJ/KG         8006.14  8118.12  8230.33  6678.65  6788.19  6897.92  7007.84  7117.94
 G, KJ/KG       -117862.0-118979.6-120098.6-104083.7-105180.5-106278.8-107378.4-108479.5
 S, KJ/(KG)(K)   111.7041 111.8345 111.9640 109.6125 109.7554 109.8971 110.0377 110.1772

 M, (1/n)           2.016    2.016    2.016    2.016    2.016    2.016    2.016    2.016
 (dLV/dLP)t      -1.00000 -1.00000 -1.00000 -1.00000 -1.00000 -1.00000 -1.00000 -1.00000
 (dLV/dLT)p        1.0000   1.0000   1.0000   1.0000   1.0000   1.0000   1.0000   1.0000
 Cp, KJ/(KG)(K)   15.3120  15.3343  15.3569  15.0696  15.0879  15.1066  15.1257  15.1451
 GAMMAs            1.3687   1.3680   1.3672   1.3768   1.3762   1.3756   1.3749   1.3743
 SON VEL,M/SEC     2570.0   2580.3   2590.5   2441.9   2452.9   2463.9   2474.8   2485.6

 TRANSPORT PROPERTIES (GASES ONLY)
   CONDUCTIVITY IN UNITS OF MILLIWATTS/(CM)(K)

 VISC,MILLIPOISE  0.22944  0.23080  0.23215  0.21277  0.21419  0.21560  0.21701  0.21841

  WITH EQUILIBRIUM REACTIONS

 Cp, KJ/(KG)(K)   15.3120  15.3343  15.3569  15.0696  15.0879  15.1066  15.1257  15.1451
 CONDUCTIVITY      5.0430   5.0794   5.1160   4.6144   4.6496   4.6850   4.7204   4.7558
 PRANDTL NUMBER    0.6966   0.6968   0.6969   0.6949   0.6950   0.6952   0.6954   0.6955

  WITH FROZEN REACTIONS

 Cp, KJ/(KG)(K)   15.3057  15.3268  15.3480  15.0691  15.0872  15.1058  15.1247  15.1438
 CONDUCTIVITY      5.0393   5.0750   5.1107   4.6141   4.6493   4.6845   4.7198   4.7551
 PRANDTL NUMBER    0.6969   0.6970   0.6972   0.6949   0.6951   0.6952   0.6954   0.6956

 MOLE FRACTIONS

 *H2              1.00000  1.00000  1.00000  1.00000  1.00000  1.00000  1.00000  1.00000

  * THERMODYNAMIC PROPERTIES FITTED TO 20000.K

 NOTE. WEIGHT FRACTION OF FUEL IN TOTAL FUELS AND OF OXIDANT IN TOTAL OXIDANTS









               THERMODYNAMIC EQUILIBRIUM PROPERTIES AT ASSIGNED

                           TEMPERATURE AND PRESSURE

 CASE =                

             REACTANT                    WT FRACTION      ENERGY      TEMP
                                          (SEE NOTE)     KJ/KG-MOL      K  
             H2                           1.0000000         0.000      0.000

 O/F=    0.00000  %FUEL=100.000000  R,EQ.RATIO= 0.000000  PHI,EQ.RATIO= 0.000000

 THERMODYNAMIC PROPERTIES

 P, BAR           0.00165  0.00165  0.00165  0.00165  0.00165  0.00165  0.00165  0.00165
 T, K             1100.00  1110.00  1120.00  1130.00  1140.00  1150.00  1160.00  1170.00
 RHO, KG/CU M    3.6368-5 3.6040-5 3.5719-5 3.5403-5 3.5092-5 3.4787-5 3.4487-5 3.4192-5
 H, KJ/KG         11765.2  11916.9  12068.9  12221.0  12373.4  12526.0  12678.8  12831.8
 U, KJ/KG         7228.25  7338.75  7449.46  7560.37  7671.49  7782.81  7894.36  8006.12
 G, KJ/KG       -109582.0-110685.8-111791.0-112897.6-114005.5-115114.8-116225.3-117337.2
 S, KJ/(KG)(K)   110.3156 110.4529 110.5892 110.7245 110.8587 110.9919 111.1242 111.2556

 M, (1/n)           2.016    2.016    2.016    2.016    2.016    2.016    2.016    2.016
 (dLV/dLP)t      -1.00000 -1.00000 -1.00000 -1.00000 -1.00000 -1.00000 -1.00000 -1.00000
 (dLV/dLT)p        1.0000   1.0000   1.0000   1.0000   1.0000   1.0000   1.0000   1.0000
 Cp, KJ/(KG)(K)   15.1648  15.1849  15.2053  15.2259  15.2469  15.2682  15.2898  15.3117
 GAMMAs            1.3736   1.3729   1.3722   1.3715   1.3709   1.3701   1.3694   1.3687
 SON VEL,M/SEC     2496.4   2507.1   2517.7   2528.3   2538.8   2549.3   2559.7   2570.0

 TRANSPORT PROPERTIES (GASES ONLY)
   CONDUCTIVITY IN UNITS OF MILLIWATTS/(CM)(K)

 VISC,MILLIPOISE  0.21980  0.22120  0.22258  0.22396  0.22534  0.22671  0.22808  0.22944

  WITH EQUILIBRIUM REACTIONS

 Cp, KJ/(KG)(K)   15.1648  15.1849  15.2053  15.2259  15.2469  15.2682  15.2898  15.3117
 CONDUCTIVITY      4.7914   4.8270   4.8627   4.8985   4.9344   4.9704   5.0065   5.0428
 PRANDTL NUMBER    0.6957   0.6958   0.6960   0.6961   0.6963   0.6964   0.6965   0.6967

  WITH FROZEN REACTIONS

 Cp, KJ/(KG)(K)   15.1633  15.1830  15.2029  15.2231  15.2435  15.2641  15.2848  15.3057
 CONDUCTIVITY      4.7905   4.8259   4.8614   4.8969   4.9324   4.9680   5.0036   5.0393
 PRANDTL NUMBER    0.6957   0.6959   0.6961   0.6962   0.6964   0.6966   0.6967   0.6969

 MOLE FRACTIONS

 *H2              1.00000  1.00000  1.00000  1.00000  1.00000  1.00000  1.00000  1.00000

  * THERMODYNAMIC PROPERTIES FITTED TO 20000.K

 NOTE. WEIGHT FRACTION OF FUEL IN TOTAL FUELS AND OF OXIDANT IN TOTAL OXIDANTS









               THERMODYNAMIC EQUILIBRIUM PROPERTIES AT ASSIGNED

                           TEMPERATURE AND PRESSURE

 CASE =                

             REACTANT                    WT FRACTION      ENERGY      TEMP
                                          (SEE NOTE)     KJ/KG-MOL      K  
             H2                           1.0000000         0.000      0.000

 O/F=    0.00000  %FUEL=100.000000  R,EQ.RATIO= 0.000000  PHI,EQ.RATIO= 0.000000

 THERMODYNAMIC PROPERTIES

 P, BAR           0.00165  0.00165  0.00180  0.00180  0.00180  0.00180  0.00180  0.00180
 T, K             1180.00  1190.00  1050.00  1060.00  1070.00  1080.00  1090.00  1100.00
 RHO, KG/CU M    3.3902-5 3.3618-5 4.1564-5 4.1171-5 4.0787-5 4.0409-5 4.0038-5 3.9674-5
 H, KJ/KG         12985.0  13138.5  11009.4  11160.2  11311.1  11462.3  11613.6  11765.2
 U, KJ/KG         8118.10  8230.31  6678.65  6788.19  6897.92  7007.83  7117.94  7228.25
 G, KJ/KG       -118450.5-119565.0-103706.9-104800.1-105894.8-106990.8-108088.3-109187.2
 S, KJ/(KG)(K)   111.3860 111.5155 109.2536 109.3965 109.5382 109.6788 109.8183 109.9567

 M, (1/n)           2.016    2.016    2.016    2.016    2.016    2.016    2.016    2.016
 (dLV/dLP)t      -1.00000 -1.00000 -1.00000 -1.00000 -1.00000 -1.00000 -1.00000 -1.00000
 (dLV/dLT)p        1.0000   1.0000   1.0000   1.0000   1.0000   1.0000   1.0000   1.0000
 Cp, KJ/(KG)(K)   15.3339  15.3564  15.0696  15.0879  15.1066  15.1256  15.1450  15.1648
 GAMMAs            1.3680   1.3673   1.3768   1.3762   1.3756   1.3749   1.3743   1.3736
 SON VEL,M/SEC     2580.3   2590.5   2441.9   2452.9   2463.9   2474.8   2485.6   2496.4

 TRANSPORT PROPERTIES (GASES ONLY)
   CONDUCTIVITY IN UNITS OF MILLIWATTS/(CM)(K)

 VISC,MILLIPOISE  0.23080  0.23215  0.21277  0.21419  0.21560  0.21701  0.21841  0.21980

  WITH EQUILIBRIUM REACTIONS

 Cp, KJ/(KG)(K)   15.3339  15.3564  15.0696  15.0879  15.1066  15.1256  15.1450  15.1648
 CONDUCTIVITY      5.0792   5.1158   4.6144   4.6496   4.6849   4.7203   4.7558   4.7913
 PRANDTL NUMBER    0.6968   0.6969   0.6949   0.6950   0.6952   0.6954   0.6955   0.6957

  WITH FROZEN REACTIONS

 Cp, KJ/(KG)(K)   15.3268  15.3480  15.0691  15.0872  15.1058  15.1247  15.1438  15.1633
 CONDUCTIVITY      5.0750   5.1107   4.6141   4.6493   4.6845   4.7198   4.7551   4.7905
 PRANDTL NUMBER    0.6970   0.6972   0.6949   0.6951   0.6952   0.6954   0.6956   0.6957

 MOLE FRACTIONS

 *H2              1.00000  1.00000  1.00000  1.00000  1.00000  1.00000  1.00000  1.00000

  * THERMODYNAMIC PROPERTIES FITTED TO 20000.K

 NOTE. WEIGHT FRACTION OF FUEL IN TOTAL FUELS AND OF OXIDANT IN TOTAL OXIDANTS









               THERMODYNAMIC EQUILIBRIUM PROPERTIES AT ASSIGNED

                           TEMPERATURE AND PRESSURE

 CASE =                

             REACTANT                    WT FRACTION      ENERGY      TEMP
                                          (SEE NOTE)     KJ/KG-MOL      K  
             H2                           1.0000000         0.000      0.000

 O/F=    0.00000  %FUEL=100.000000  R,EQ.RATIO= 0.000000  PHI,EQ.RATIO= 0.000000

 THERMODYNAMIC PROPERTIES

 P, BAR           0.00180  0.00180  0.00180  0.00180  0.00180  0.00180  0.00180  0.00180
 T, K             1110.00  1120.00  1130.00  1140.00  1150.00  1160.00  1170.00  1180.00
 RHO, KG/CU M    3.9317-5 3.8966-5 3.8621-5 3.8282-5 3.7949-5 3.7622-5 3.7301-5 3.6984-5
 H, KJ/KG         11916.9  12068.9  12221.0  12373.4  12526.0  12678.8  12831.8  12985.0
 U, KJ/KG         7338.75  7449.45  7560.36  7671.48  7782.81  7894.35  8006.11  8118.09
 G, KJ/KG       -110287.5-111389.1-112492.1-113596.4-114702.0-115809.0-116917.4-118027.0
 S, KJ/(KG)(K)   110.0940 110.2303 110.3656 110.4998 110.6331 110.7653 110.8967 111.0271

 M, (1/n)           2.016    2.016    2.016    2.016    2.016    2.016    2.016    2.016
 (dLV/dLP)t      -1.00000 -1.00000 -1.00000 -1.00000 -1.00000 -1.00000 -1.00000 -1.00000
 (dLV/dLT)p        1.0000   1.0000   1.0000   1.0000   1.0000   1.0000   1.0000   1.0000
 Cp, KJ/(KG)(K)   15.1848  15.2052  15.2258  15.2468  15.2680  15.2896  15.3114  15.3336
 GAMMAs            1.3729   1.3722   1.3716   1.3709   1.3702   1.3694   1.3687   1.3680
 SON VEL,M/SEC     2507.1   2517.7   2528.3   2538.8   2549.3   2559.7   2570.0   2580.3

 TRANSPORT PROPERTIES (GASES ONLY)
   CONDUCTIVITY IN UNITS OF MILLIWATTS/(CM)(K)

 VISC,MILLIPOISE  0.22120  0.22258  0.22396  0.22534  0.22671  0.22808  0.22944  0.23080

  WITH EQUILIBRIUM REACTIONS

 Cp, KJ/(KG)(K)   15.1848  15.2052  15.2258  15.2468  15.2680  15.2896  15.3114  15.3336
 CONDUCTIVITY      4.8269   4.8626   4.8984   4.9343   4.9703   5.0064   5.0426   5.0790
 PRANDTL NUMBER    0.6958   0.6960   0.6961   0.6963   0.6964   0.6965   0.6967   0.6968

  WITH FROZEN REACTIONS

 Cp, KJ/(KG)(K)   15.1830  15.2029  15.2231  15.2435  15.2641  15.2848  15.3057  15.3268
 CONDUCTIVITY      4.8259   4.8614   4.8969   4.9324   4.9680   5.0036   5.0393   5.0750
 PRANDTL NUMBER    0.6959   0.6961   0.6962   0.6964   0.6966   0.6967   0.6969   0.6970

 MOLE FRACTIONS

 *H2              1.00000  1.00000  1.00000  1.00000  1.00000  1.00000  1.00000  1.00000

  * THERMODYNAMIC PROPERTIES FITTED TO 20000.K

 NOTE. WEIGHT FRACTION OF FUEL IN TOTAL FUELS AND OF OXIDANT IN TOTAL OXIDANTS









               THERMODYNAMIC EQUILIBRIUM PROPERTIES AT ASSIGNED

                           TEMPERATURE AND PRESSURE

 CASE =                

             REACTANT                    WT FRACTION      ENERGY      TEMP
                                          (SEE NOTE)     KJ/KG-MOL      K  
             H2                           1.0000000         0.000      0.000

 O/F=    0.00000  %FUEL=100.000000  R,EQ.RATIO= 0.000000  PHI,EQ.RATIO= 0.000000

 THERMODYNAMIC PROPERTIES

 P, BAR           0.00180  0.00200  0.00200  0.00200  0.00200  0.00200  0.00200  0.00200
 T, K             1190.00  1050.00  1060.00  1070.00  1080.00  1090.00  1100.00  1110.00
 RHO, KG/CU M    3.6674-5 4.6182-5 4.5746-5 4.5319-5 4.4899-5 4.4487-5 4.4083-5 4.3685-5
 H, KJ/KG         13138.4  11009.4  11160.2  11311.1  11462.3  11613.6  11765.2  11916.9
 U, KJ/KG         8230.29  6678.65  6788.19  6897.92  7007.83  7117.94  7228.24  7338.74
 G, KJ/KG       -119137.9-103250.6-104339.5-105429.8-106521.5-107614.7-108709.2-109805.1
 S, KJ/(KG)(K)   111.1566 108.8191 108.9619 109.1037 109.2443 109.3837 109.5221 109.6595

 M, (1/n)           2.016    2.016    2.016    2.016    2.016    2.016    2.016    2.016
 (dLV/dLP)t      -1.00000 -1.00000 -1.00000 -1.00000 -1.00000 -1.00000 -1.00000 -1.00000
 (dLV/dLT)p        1.0000   1.0000   1.0000   1.0000   1.0000   1.0000   1.0000   1.0000
 Cp, KJ/(KG)(K)   15.3561  15.0695  15.0879  15.1065  15.1256  15.1450  15.1647  15.1847
 GAMMAs            1.3673   1.3768   1.3762   1.3756   1.3749   1.3743   1.3736   1.3729
 SON VEL,M/SEC     2590.5   2441.9   2452.9   2463.9   2474.8   2485.6   2496.4   2507.1

 TRANSPORT PROPERTIES (GASES ONLY)
   CONDUCTIVITY IN UNITS OF MILLIWATTS/(CM)(K)

 VISC,MILLIPOISE  0.23215  0.21277  0.21419  0.21560  0.21701  0.21841  0.21980  0.22120

  WITH EQUILIBRIUM REACTIONS

 Cp, KJ/(KG)(K)   15.3561  15.0695  15.0879  15.1065  15.1256  15.1450  15.1647  15.1847
 CONDUCTIVITY      5.1155   4.6144   4.6496   4.6849   4.7203   4.7557   4.7913   4.8269
 PRANDTL NUMBER    0.6969   0.6949   0.6950   0.6952   0.6954   0.6955   0.6957   0.6959

  WITH FROZEN REACTIONS

 Cp, KJ/(KG)(K)   15.3480  15.0691  15.0872  15.1058  15.1247  15.1438  15.1633  15.1830
 CONDUCTIVITY      5.1107   4.6141   4.6493   4.6845   4.7198   4.7551   4.7905   4.8259
 PRANDTL NUMBER    0.6972   0.6949   0.6951   0.6952   0.6954   0.6956   0.6957   0.6959

 MOLE FRACTIONS

 *H2              1.00000  1.00000  1.00000  1.00000  1.00000  1.00000  1.00000  1.00000

  * THERMODYNAMIC PROPERTIES FITTED TO 20000.K

 NOTE. WEIGHT FRACTION OF FUEL IN TOTAL FUELS AND OF OXIDANT IN TOTAL OXIDANTS









               THERMODYNAMIC EQUILIBRIUM PROPERTIES AT ASSIGNED

                           TEMPERATURE AND PRESSURE

 CASE =                

             REACTANT                    WT FRACTION      ENERGY      TEMP
                                          (SEE NOTE)     KJ/KG-MOL      K  
             H2                           1.0000000         0.000      0.000

 O/F=    0.00000  %FUEL=100.000000  R,EQ.RATIO= 0.000000  PHI,EQ.RATIO= 0.000000

 THERMODYNAMIC PROPERTIES

 P, BAR           0.00200  0.00200  0.00200  0.00200  0.00200  0.00200  0.00200  0.00200
 T, K             1120.00  1130.00  1140.00  1150.00  1160.00  1170.00  1180.00  1190.00
 RHO, KG/CU M    4.3295-5 4.2912-5 4.2536-5 4.2166-5 4.1802-5 4.1445-5 4.1094-5 4.0749-5
 H, KJ/KG         12068.9  12221.0  12373.4  12526.0  12678.7  12831.8  12985.0  13138.4
 U, KJ/KG         7449.45  7560.35  7671.47  7782.80  7894.34  8006.09  8118.07  8230.27
 G, KJ/KG       -110902.4-112001.0-113101.0-114202.3-115305.0-116408.9-117514.2-118620.8
 S, KJ/(KG)(K)   109.7958 109.9310 110.0652 110.1985 110.3308 110.4621 110.5925 110.7220

 M, (1/n)           2.016    2.016    2.016    2.016    2.016    2.016    2.016    2.016
 (dLV/dLP)t      -1.00000 -1.00000 -1.00000 -1.00000 -1.00000 -1.00000 -1.00000 -1.00000
 (dLV/dLT)p        1.0000   1.0000   1.0000   1.0000   1.0000   1.0000   1.0000   1.0000
 Cp, KJ/(KG)(K)   15.2050  15.2257  15.2466  15.2678  15.2893  15.3111  15.3332  15.3557
 GAMMAs            1.3722   1.3716   1.3709   1.3702   1.3694   1.3687   1.3680   1.3673
 SON VEL,M/SEC     2517.7   2528.3   2538.8   2549.3   2559.7   2570.0   2580.3   2590.5

 TRANSPORT PROPERTIES (GASES ONLY)
   CONDUCTIVITY IN UNITS OF MILLIWATTS/(CM)(K)

 VISC,MILLIPOISE  0.22258  0.22396  0.22534  0.22671  0.22808  0.22944  0.23080  0.23215

  WITH EQUILIBRIUM REACTIONS

 Cp, KJ/(KG)(K)   15.2050  15.2257  15.2466  15.2678  15.2893  15.3111  15.3332  15.3557
 CONDUCTIVITY      4.8626   4.8983   4.9342   4.9702   5.0062   5.0424   5.0788   5.1153
 PRANDTL NUMBER    0.6960   0.6962   0.6963   0.6964   0.6966   0.6967   0.6968   0.6969

  WITH FROZEN REACTIONS

 Cp, KJ/(KG)(K)   15.2029  15.2231  15.2435  15.2641  15.2848  15.3057  15.3268  15.3480
 CONDUCTIVITY      4.8614   4.8969   4.9324   4.9680   5.0036   5.0393   5.0750   5.1107
 PRANDTL NUMBER    0.6961   0.6962   0.6964   0.6966   0.6967   0.6969   0.6970   0.6972

 MOLE FRACTIONS

 *H2              1.00000  1.00000  1.00000  1.00000  1.00000  1.00000  1.00000  1.00000

  * THERMODYNAMIC PROPERTIES FITTED TO 20000.K

 NOTE. WEIGHT FRACTION OF FUEL IN TOTAL FUELS AND OF OXIDANT IN TOTAL OXIDANTS









               THERMODYNAMIC EQUILIBRIUM PROPERTIES AT ASSIGNED

                           TEMPERATURE AND PRESSURE

 CASE =                

             REACTANT                    WT FRACTION      ENERGY      TEMP
                                          (SEE NOTE)     KJ/KG-MOL      K  
             H2                           1.0000000         0.000      0.000

 O/F=    0.00000  %FUEL=100.000000  R,EQ.RATIO= 0.000000  PHI,EQ.RATIO= 0.000000

 THERMODYNAMIC PROPERTIES

 P, BAR           0.00225  0.00225  0.00225  0.00225  0.00225  0.00225  0.00225  0.00225
 T, K             1050.00  1060.00  1070.00  1080.00  1090.00  1100.00  1110.00  1120.00
 RHO, KG/CU M    5.1954-5 5.1464-5 5.0983-5 5.0511-5 5.0048-5 4.9593-5 4.9146-5 4.8707-5
 H, KJ/KG         11009.4  11160.2  11311.1  11462.3  11613.6  11765.2  11916.9  12068.9
 U, KJ/KG         6678.65  6788.19  6897.91  7007.83  7117.94  7228.24  7338.74  7449.44
 G, KJ/KG       -102740.5-103824.5-104910.0-105996.9-107085.1-108174.8-109265.9-110358.3
 S, KJ/(KG)(K)   108.3333 108.4761 108.6179 108.7585 108.8980 109.0363 109.1737 109.3100

 M, (1/n)           2.016    2.016    2.016    2.016    2.016    2.016    2.016    2.016
 (dLV/dLP)t      -1.00000 -1.00000 -1.00000 -1.00000 -1.00000 -1.00000 -1.00000 -1.00000
 (dLV/dLT)p        1.0000   1.0000   1.0000   1.0000   1.0000   1.0000   1.0000   1.0000
 Cp, KJ/(KG)(K)   15.0695  15.0878  15.1065  15.1255  15.1449  15.1646  15.1846  15.2049
 GAMMAs            1.3768   1.3762   1.3756   1.3749   1.3743   1.3736   1.3729   1.3722
 SON VEL,M/SEC     2441.9   2452.9   2463.9   2474.8   2485.6   2496.4   2507.1   2517.7

 TRANSPORT PROPERTIES (GASES ONLY)
   CONDUCTIVITY IN UNITS OF MILLIWATTS/(CM)(K)

 VISC,MILLIPOISE  0.21277  0.21419  0.21560  0.21701  0.21841  0.21980  0.22120  0.22258

  WITH EQUILIBRIUM REACTIONS

 Cp, KJ/(KG)(K)   15.0695  15.0878  15.1065  15.1255  15.1449  15.1646  15.1846  15.2049
 CONDUCTIVITY      4.6144   4.6496   4.6849   4.7203   4.7557   4.7912   4.8268   4.8625
 PRANDTL NUMBER    0.6949   0.6950   0.6952   0.6954   0.6955   0.6957   0.6959   0.6960

  WITH FROZEN REACTIONS

 Cp, KJ/(KG)(K)   15.0691  15.0872  15.1058  15.1247  15.1438  15.1633  15.1830  15.2029
 CONDUCTIVITY      4.6141   4.6493   4.6845   4.7198   4.7551   4.7905   4.8259   4.8614
 PRANDTL NUMBER    0.6949   0.6951   0.6952   0.6954   0.6956   0.6957   0.6959   0.6961

 MOLE FRACTIONS

 *H2              1.00000  1.00000  1.00000  1.00000  1.00000  1.00000  1.00000  1.00000

  * THERMODYNAMIC PROPERTIES FITTED TO 20000.K

 NOTE. WEIGHT FRACTION OF FUEL IN TOTAL FUELS AND OF OXIDANT IN TOTAL OXIDANTS









               THERMODYNAMIC EQUILIBRIUM PROPERTIES AT ASSIGNED

                           TEMPERATURE AND PRESSURE

 CASE =                

             REACTANT                    WT FRACTION      ENERGY      TEMP
                                          (SEE NOTE)     KJ/KG-MOL      K  
             H2                           1.0000000         0.000      0.000

 O/F=    0.00000  %FUEL=100.000000  R,EQ.RATIO= 0.000000  PHI,EQ.RATIO= 0.000000

 THERMODYNAMIC PROPERTIES

 P, BAR           0.00225  0.00225  0.00225  0.00225  0.00225  0.00225  0.00225  0.00250
 T, K             1130.00  1140.00  1150.00  1160.00  1170.00  1180.00  1190.00  1050.00
 RHO, KG/CU M    4.8276-5 4.7853-5 4.7437-5 4.7028-5 4.6626-5 4.6231-5 4.5842-5 5.7727-5
 H, KJ/KG         12221.0  12373.4  12526.0  12678.7  12831.7  12985.0  13138.4  11009.4
 U, KJ/KG         7560.35  7671.46  7782.79  7894.32  8006.08  8118.05  8230.24  6678.65
 G, KJ/KG       -111452.1-112547.2-113643.6-114741.4-115840.5-116940.9-118042.7-102284.3
 S, KJ/(KG)(K)   109.4452 109.5794 109.7127 109.8450 109.9763 110.1067 110.2362 107.8987

 M, (1/n)           2.016    2.016    2.016    2.016    2.016    2.016    2.016    2.016
 (dLV/dLP)t      -1.00000 -1.00000 -1.00000 -1.00000 -1.00000 -1.00000 -1.00000 -1.00000
 (dLV/dLT)p        1.0000   1.0000   1.0000   1.0000   1.0000   1.0000   1.0000   1.0000
 Cp, KJ/(KG)(K)   15.2255  15.2464  15.2676  15.2891  15.3108  15.3329  15.3552  15.0695
 GAMMAs            1.3716   1.3709   1.3702   1.3695   1.3687   1.3680   1.3673   1.3768
 SON VEL,M/SEC     2528.3   2538.8   2549.3   2559.7   2570.0   2580.3   2590.5   2441.9

 TRANSPORT PROPERTIES (GASES ONLY)
   CONDUCTIVITY IN UNITS OF MILLIWATTS/(CM)(K)

 VISC,MILLIPOISE  0.22396  0.22534  0.22671  0.22808  0.22944  0.23080  0.23215  0.21277

  WITH EQUILIBRIUM REACTIONS

 Cp, KJ/(KG)(K)   15.2255  15.2464  15.2676  15.2891  15.3108  15.3329  15.3552  15.0695
 CONDUCTIVITY      4.8982   4.9341   4.9700   5.0061   5.0423   5.0786   5.1150   4.6144
 PRANDTL NUMBER    0.6962   0.6963   0.6964   0.6966   0.6967   0.6968   0.6969   0.6949

  WITH FROZEN REACTIONS

 Cp, KJ/(KG)(K)   15.2231  15.2435  15.2641  15.2848  15.3057  15.3268  15.3480  15.0691
 CONDUCTIVITY      4.8969   4.9324   4.9680   5.0036   5.0393   5.0750   5.1107   4.6141
 PRANDTL NUMBER    0.6962   0.6964   0.6966   0.6967   0.6969   0.6970   0.6972   0.6949

 MOLE FRACTIONS

 *H2              1.00000  1.00000  1.00000  1.00000  1.00000  1.00000  1.00000  1.00000

  * THERMODYNAMIC PROPERTIES FITTED TO 20000.K

 NOTE. WEIGHT FRACTION OF FUEL IN TOTAL FUELS AND OF OXIDANT IN TOTAL OXIDANTS









               THERMODYNAMIC EQUILIBRIUM PROPERTIES AT ASSIGNED

                           TEMPERATURE AND PRESSURE

 CASE =                

             REACTANT                    WT FRACTION      ENERGY      TEMP
                                          (SEE NOTE)     KJ/KG-MOL      K  
             H2                           1.0000000         0.000      0.000

 O/F=    0.00000  %FUEL=100.000000  R,EQ.RATIO= 0.000000  PHI,EQ.RATIO= 0.000000

 THERMODYNAMIC PROPERTIES

 P, BAR           0.00250  0.00250  0.00250  0.00250  0.00250  0.00250  0.00250  0.00250
 T, K             1060.00  1070.00  1080.00  1090.00  1100.00  1110.00  1120.00  1130.00
 RHO, KG/CU M    5.7183-5 5.6648-5 5.6124-5 5.5609-5 5.5103-5 5.4607-5 5.4119-5 5.3640-5
 H, KJ/KG         11160.2  11311.1  11462.3  11613.6  11765.2  11916.9  12068.9  12221.0
 U, KJ/KG         6788.19  6897.91  7007.83  7117.93  7228.24  7338.74  7449.44  7560.34
 G, KJ/KG       -103363.9-104445.0-105527.5-106611.5-107696.8-108783.5-109871.6-110961.0
 S, KJ/(KG)(K)   108.0416 108.1833 108.3239 108.4634 108.6018 108.7391 108.8754 109.0106

 M, (1/n)           2.016    2.016    2.016    2.016    2.016    2.016    2.016    2.016
 (dLV/dLP)t      -1.00000 -1.00000 -1.00000 -1.00000 -1.00000 -1.00000 -1.00000 -1.00000
 (dLV/dLT)p        1.0000   1.0000   1.0000   1.0000   1.0000   1.0000   1.0000   1.0000
 Cp, KJ/(KG)(K)   15.0878  15.1065  15.1255  15.1449  15.1645  15.1845  15.2048  15.2254
 GAMMAs            1.3762   1.3756   1.3749   1.3743   1.3736   1.3729   1.3723   1.3716
 SON VEL,M/SEC     2452.9   2463.9   2474.8   2485.6   2496.4   2507.1   2517.7   2528.3

 TRANSPORT PROPERTIES (GASES ONLY)
   CONDUCTIVITY IN UNITS OF MILLIWATTS/(CM)(K)

 VISC,MILLIPOISE  0.21419  0.21560  0.21701  0.21841  0.21980  0.22120  0.22258  0.22396

  WITH EQUILIBRIUM REACTIONS

 Cp, KJ/(KG)(K)   15.0878  15.1065  15.1255  15.1449  15.1645  15.1845  15.2048  15.2254
 CONDUCTIVITY      4.6496   4.6849   4.7202   4.7557   4.7912   4.8268   4.8624   4.8982
 PRANDTL NUMBER    0.6950   0.6952   0.6954   0.6955   0.6957   0.6959   0.6960   0.6962

  WITH FROZEN REACTIONS

 Cp, KJ/(KG)(K)   15.0872  15.1058  15.1247  15.1438  15.1633  15.1830  15.2029  15.2231
 CONDUCTIVITY      4.6493   4.6845   4.7198   4.7551   4.7905   4.8259   4.8614   4.8969
 PRANDTL NUMBER    0.6951   0.6952   0.6954   0.6956   0.6957   0.6959   0.6961   0.6962

 MOLE FRACTIONS

 *H2              1.00000  1.00000  1.00000  1.00000  1.00000  1.00000  1.00000  1.00000

  * THERMODYNAMIC PROPERTIES FITTED TO 20000.K

 NOTE. WEIGHT FRACTION OF FUEL IN TOTAL FUELS AND OF OXIDANT IN TOTAL OXIDANTS









               THERMODYNAMIC EQUILIBRIUM PROPERTIES AT ASSIGNED

                           TEMPERATURE AND PRESSURE

 CASE =                

             REACTANT                    WT FRACTION      ENERGY      TEMP
                                          (SEE NOTE)     KJ/KG-MOL      K  
             H2                           1.0000000         0.000      0.000

 O/F=    0.00000  %FUEL=100.000000  R,EQ.RATIO= 0.000000  PHI,EQ.RATIO= 0.000000

 THERMODYNAMIC PROPERTIES

 P, BAR           0.00250  0.00250  0.00250  0.00250  0.00250  0.00250  0.00280  0.00280
 T, K             1140.00  1150.00  1160.00  1170.00  1180.00  1190.00  1050.00  1060.00
 RHO, KG/CU M    5.3170-5 5.2707-5 5.2253-5 5.1806-5 5.1367-5 5.0936-5 6.4654-5 6.4044-5
 H, KJ/KG         12373.4  12525.9  12678.7  12831.7  12984.9  13138.4  11009.4  11160.1
 U, KJ/KG         7671.45  7782.78  7894.31  8006.06  8118.03  8230.22  6678.65  6788.19
 G, KJ/KG       -112051.8-113143.9-114237.3-115332.1-116428.2-117525.5-101793.5-102868.4
 S, KJ/(KG)(K)   109.1449 109.2781 109.4104 109.5417 109.6721 109.8016 107.4313 107.5741

 M, (1/n)           2.016    2.016    2.016    2.016    2.016    2.016    2.016    2.016
 (dLV/dLP)t      -1.00000 -1.00000 -1.00000 -1.00000 -1.00000 -1.00000 -1.00000 -1.00000
 (dLV/dLT)p        1.0000   1.0000   1.0000   1.0000   1.0000   1.0000   1.0000   1.0000
 Cp, KJ/(KG)(K)   15.2463  15.2674  15.2888  15.3106  15.3326  15.3549  15.0695  15.0878
 GAMMAs            1.3709   1.3702   1.3695   1.3687   1.3680   1.3673   1.3768   1.3762
 SON VEL,M/SEC     2538.8   2549.3   2559.7   2570.0   2580.3   2590.5   2441.9   2452.9

 TRANSPORT PROPERTIES (GASES ONLY)
   CONDUCTIVITY IN UNITS OF MILLIWATTS/(CM)(K)

 VISC,MILLIPOISE  0.22534  0.22671  0.22808  0.22944  0.23080  0.23215  0.21277  0.21419

  WITH EQUILIBRIUM REACTIONS

 Cp, KJ/(KG)(K)   15.2463  15.2674  15.2888  15.3106  15.3326  15.3549  15.0695  15.0878
 CONDUCTIVITY      4.9340   4.9699   5.0060   5.0421   5.0784   5.1148   4.6143   4.6496
 PRANDTL NUMBER    0.6963   0.6964   0.6966   0.6967   0.6968   0.6969   0.6949   0.6950

  WITH FROZEN REACTIONS

 Cp, KJ/(KG)(K)   15.2435  15.2641  15.2848  15.3057  15.3268  15.3480  15.0691  15.0872
 CONDUCTIVITY      4.9324   4.9680   5.0036   5.0393   5.0750   5.1107   4.6141   4.6493
 PRANDTL NUMBER    0.6964   0.6966   0.6967   0.6969   0.6970   0.6972   0.6949   0.6951

 MOLE FRACTIONS

 *H2              1.00000  1.00000  1.00000  1.00000  1.00000  1.00000  1.00000  1.00000

  * THERMODYNAMIC PROPERTIES FITTED TO 20000.K

 NOTE. WEIGHT FRACTION OF FUEL IN TOTAL FUELS AND OF OXIDANT IN TOTAL OXIDANTS









               THERMODYNAMIC EQUILIBRIUM PROPERTIES AT ASSIGNED

                           TEMPERATURE AND PRESSURE

 CASE =                

             REACTANT                    WT FRACTION      ENERGY      TEMP
                                          (SEE NOTE)     KJ/KG-MOL      K  
             H2                           1.0000000         0.000      0.000

 O/F=    0.00000  %FUEL=100.000000  R,EQ.RATIO= 0.000000  PHI,EQ.RATIO= 0.000000

 THERMODYNAMIC PROPERTIES

 P, BAR           0.00280  0.00280  0.00280  0.00280  0.00280  0.00280  0.00280  0.00280
 T, K             1070.00  1080.00  1090.00  1100.00  1110.00  1120.00  1130.00  1140.00
 RHO, KG/CU M    6.3446-5 6.2858-5 6.2282-5 6.1716-5 6.1160-5 6.0614-5 6.0077-5 5.9550-5
 H, KJ/KG         11311.1  11462.3  11613.6  11765.2  11916.9  12068.9  12221.0  12373.4
 U, KJ/KG         6897.91  7007.83  7117.93  7228.23  7338.73  7449.43  7560.34  7671.45
 G, KJ/KG       -103944.9-105022.7-106102.0-107182.6-108264.7-109348.1-110432.8-111518.9
 S, KJ/(KG)(K)   107.7159 107.8565 107.9960 108.1344 108.2717 108.4080 108.5432 108.6774

 M, (1/n)           2.016    2.016    2.016    2.016    2.016    2.016    2.016    2.016
 (dLV/dLP)t      -1.00000 -1.00000 -1.00000 -1.00000 -1.00000 -1.00000 -1.00000 -1.00000
 (dLV/dLT)p        1.0000   1.0000   1.0000   1.0000   1.0000   1.0000   1.0000   1.0000
 Cp, KJ/(KG)(K)   15.1064  15.1254  15.1448  15.1645  15.1844  15.2047  15.2253  15.2461
 GAMMAs            1.3756   1.3749   1.3743   1.3736   1.3729   1.3723   1.3716   1.3709
 SON VEL,M/SEC     2463.9   2474.8   2485.6   2496.4   2507.1   2517.7   2528.3   2538.8

 TRANSPORT PROPERTIES (GASES ONLY)
   CONDUCTIVITY IN UNITS OF MILLIWATTS/(CM)(K)

 VISC,MILLIPOISE  0.21560  0.21701  0.21841  0.21980  0.22120  0.22258  0.22396  0.22534

  WITH EQUILIBRIUM REACTIONS

 Cp, KJ/(KG)(K)   15.1064  15.1254  15.1448  15.1645  15.1844  15.2047  15.2253  15.2461
 CONDUCTIVITY      4.6849   4.7202   4.7556   4.7911   4.8267   4.8624   4.8981   4.9339
 PRANDTL NUMBER    0.6952   0.6954   0.6955   0.6957   0.6959   0.6960   0.6962   0.6963

  WITH FROZEN REACTIONS

 Cp, KJ/(KG)(K)   15.1058  15.1247  15.1438  15.1633  15.1830  15.2029  15.2231  15.2435
 CONDUCTIVITY      4.6845   4.7198   4.7551   4.7905   4.8259   4.8614   4.8969   4.9324
 PRANDTL NUMBER    0.6952   0.6954   0.6956   0.6957   0.6959   0.6961   0.6962   0.6964

 MOLE FRACTIONS

 *H2              1.00000  1.00000  1.00000  1.00000  1.00000  1.00000  1.00000  1.00000

  * THERMODYNAMIC PROPERTIES FITTED TO 20000.K

 NOTE. WEIGHT FRACTION OF FUEL IN TOTAL FUELS AND OF OXIDANT IN TOTAL OXIDANTS









               THERMODYNAMIC EQUILIBRIUM PROPERTIES AT ASSIGNED

                           TEMPERATURE AND PRESSURE

 CASE =                

             REACTANT                    WT FRACTION      ENERGY      TEMP
                                          (SEE NOTE)     KJ/KG-MOL      K  
             H2                           1.0000000         0.000      0.000

 O/F=    0.00000  %FUEL=100.000000  R,EQ.RATIO= 0.000000  PHI,EQ.RATIO= 0.000000

 THERMODYNAMIC PROPERTIES

 P, BAR           0.00280  0.00280  0.00280  0.00280  0.00280  0.00310  0.00310  0.00310
 T, K             1150.00  1160.00  1170.00  1180.00  1190.00  1050.00  1060.00  1070.00
 RHO, KG/CU M    5.9032-5 5.8523-5 5.8023-5 5.7531-5 5.7048-5 7.1582-5 7.0906-5 7.0244-5
 H, KJ/KG         12525.9  12678.7  12831.7  12984.9  13138.4  11009.4  11160.1  11311.1
 U, KJ/KG         7782.77  7894.30  8006.05  8118.02  8230.20  6678.64  6788.18  6897.91
 G, KJ/KG       -112606.4-113695.1-114785.2-115876.6-116969.3-101352.7-102423.4-103495.7
 S, KJ/(KG)(K)   108.8107 108.9430 109.0743 109.2047 109.3342 107.0115 107.1543 107.2961

 M, (1/n)           2.016    2.016    2.016    2.016    2.016    2.016    2.016    2.016
 (dLV/dLP)t      -1.00000 -1.00000 -1.00000 -1.00000 -1.00000 -1.00000 -1.00000 -1.00000
 (dLV/dLT)p        1.0000   1.0000   1.0000   1.0000   1.0000   1.0000   1.0000   1.0000
 Cp, KJ/(KG)(K)   15.2672  15.2886  15.3103  15.3322  15.3545  15.0694  15.0877  15.1064
 GAMMAs            1.3702   1.3695   1.3688   1.3680   1.3673   1.3768   1.3762   1.3756
 SON VEL,M/SEC     2549.3   2559.7   2570.0   2580.3   2590.6   2441.9   2452.9   2463.9

 TRANSPORT PROPERTIES (GASES ONLY)
   CONDUCTIVITY IN UNITS OF MILLIWATTS/(CM)(K)

 VISC,MILLIPOISE  0.22671  0.22808  0.22944  0.23080  0.23215  0.21277  0.21419  0.21560

  WITH EQUILIBRIUM REACTIONS

 Cp, KJ/(KG)(K)   15.2672  15.2886  15.3103  15.3322  15.3545  15.0694  15.0877  15.1064
 CONDUCTIVITY      4.9698   5.0058   5.0420   5.0782   5.1146   4.6143   4.6496   4.6848
 PRANDTL NUMBER    0.6964   0.6966   0.6967   0.6968   0.6969   0.6949   0.6950   0.6952

  WITH FROZEN REACTIONS

 Cp, KJ/(KG)(K)   15.2641  15.2848  15.3057  15.3268  15.3480  15.0691  15.0872  15.1058
 CONDUCTIVITY      4.9680   5.0036   5.0393   5.0750   5.1107   4.6141   4.6493   4.6845
 PRANDTL NUMBER    0.6966   0.6967   0.6969   0.6970   0.6972   0.6949   0.6951   0.6952

 MOLE FRACTIONS

 *H2              1.00000  1.00000  1.00000  1.00000  1.00000  1.00000  1.00000  1.00000

  * THERMODYNAMIC PROPERTIES FITTED TO 20000.K

 NOTE. WEIGHT FRACTION OF FUEL IN TOTAL FUELS AND OF OXIDANT IN TOTAL OXIDANTS









               THERMODYNAMIC EQUILIBRIUM PROPERTIES AT ASSIGNED

                           TEMPERATURE AND PRESSURE

 CASE =                

             REACTANT                    WT FRACTION      ENERGY      TEMP
                                          (SEE NOTE)     KJ/KG-MOL      K  
             H2                           1.0000000         0.000      0.000

 O/F=    0.00000  %FUEL=100.000000  R,EQ.RATIO= 0.000000  PHI,EQ.RATIO= 0.000000

 THERMODYNAMIC PROPERTIES

 P, BAR           0.00310  0.00310  0.00310  0.00310  0.00310  0.00310  0.00310  0.00310
 T, K             1080.00  1090.00  1100.00  1110.00  1120.00  1130.00  1140.00  1150.00
 RHO, KG/CU M    6.9593-5 6.8955-5 6.8328-5 6.7712-5 6.7108-5 6.6514-5 6.5930-5 6.5357-5
 H, KJ/KG         11462.3  11613.6  11765.2  11916.9  12068.9  12221.0  12373.4  12525.9
 U, KJ/KG         7007.82  7117.93  7228.23  7338.73  7449.43  7560.33  7671.44  7782.76
 G, KJ/KG       -104569.3-105644.4-106720.8-107798.7-108877.9-109958.4-111040.3-112123.6
 S, KJ/(KG)(K)   107.4367 107.5762 107.7146 107.8519 107.9882 108.1234 108.2576 108.3909

 M, (1/n)           2.016    2.016    2.016    2.016    2.016    2.016    2.016    2.016
 (dLV/dLP)t      -1.00000 -1.00000 -1.00000 -1.00000 -1.00000 -1.00000 -1.00000 -1.00000
 (dLV/dLT)p        1.0000   1.0000   1.0000   1.0000   1.0000   1.0000   1.0000   1.0000
 Cp, KJ/(KG)(K)   15.1254  15.1447  15.1644  15.1844  15.2046  15.2252  15.2460  15.2671
 GAMMAs            1.3749   1.3743   1.3736   1.3729   1.3723   1.3716   1.3709   1.3702
 SON VEL,M/SEC     2474.8   2485.6   2496.4   2507.1   2517.7   2528.3   2538.9   2549.3

 TRANSPORT PROPERTIES (GASES ONLY)
   CONDUCTIVITY IN UNITS OF MILLIWATTS/(CM)(K)

 VISC,MILLIPOISE  0.21701  0.21841  0.21980  0.22120  0.22258  0.22396  0.22534  0.22671

  WITH EQUILIBRIUM REACTIONS

 Cp, KJ/(KG)(K)   15.1254  15.1447  15.1644  15.1844  15.2046  15.2252  15.2460  15.2671
 CONDUCTIVITY      4.7202   4.7556   4.7911   4.8267   4.8623   4.8980   4.9338   4.9697
 PRANDTL NUMBER    0.6954   0.6955   0.6957   0.6959   0.6960   0.6962   0.6963   0.6965

  WITH FROZEN REACTIONS

 Cp, KJ/(KG)(K)   15.1247  15.1438  15.1633  15.1830  15.2029  15.2231  15.2435  15.2641
 CONDUCTIVITY      4.7198   4.7551   4.7905   4.8259   4.8614   4.8969   4.9324   4.9680
 PRANDTL NUMBER    0.6954   0.6956   0.6957   0.6959   0.6961   0.6962   0.6964   0.6966

 MOLE FRACTIONS

 *H2              1.00000  1.00000  1.00000  1.00000  1.00000  1.00000  1.00000  1.00000

  * THERMODYNAMIC PROPERTIES FITTED TO 20000.K

 NOTE. WEIGHT FRACTION OF FUEL IN TOTAL FUELS AND OF OXIDANT IN TOTAL OXIDANTS









               THERMODYNAMIC EQUILIBRIUM PROPERTIES AT ASSIGNED

                           TEMPERATURE AND PRESSURE

 CASE =                

             REACTANT                    WT FRACTION      ENERGY      TEMP
                                          (SEE NOTE)     KJ/KG-MOL      K  
             H2                           1.0000000         0.000      0.000

 O/F=    0.00000  %FUEL=100.000000  R,EQ.RATIO= 0.000000  PHI,EQ.RATIO= 0.000000

 THERMODYNAMIC PROPERTIES

 P, BAR           0.00310  0.00310  0.00310  0.00310  0.00350  0.00350  0.00350  0.00350
 T, K             1160.00  1170.00  1180.00  1190.00  1050.00  1060.00  1070.00  1080.00
 RHO, KG/CU M    6.4794-5 6.4240-5 6.3696-5 6.3160-5 8.0818-5 8.0056-5 7.9307-5 7.8573-5
 H, KJ/KG         12678.7  12831.7  12984.9  13138.3  11009.4  11160.1  11311.1  11462.3
 U, KJ/KG         7894.29  8006.04  8118.00  8230.19  6678.64  6788.18  6897.91  7007.82
 G, KJ/KG       -113208.1-114294.0-115381.2-116469.7-100827.1-101892.8-102960.1-104028.7
 S, KJ/(KG)(K)   108.5232 108.6545 108.7849 108.9143 106.5109 106.6538 106.7955 106.9361

 M, (1/n)           2.016    2.016    2.016    2.016    2.016    2.016    2.016    2.016
 (dLV/dLP)t      -1.00000 -1.00000 -1.00000 -1.00000 -1.00000 -1.00000 -1.00000 -1.00000
 (dLV/dLT)p        1.0000   1.0000   1.0000   1.0000   1.0000   1.0000   1.0000   1.0000
 Cp, KJ/(KG)(K)   15.2884  15.3101  15.3320  15.3542  15.0694  15.0877  15.1064  15.1254
 GAMMAs            1.3695   1.3688   1.3680   1.3673   1.3768   1.3762   1.3756   1.3749
 SON VEL,M/SEC     2559.7   2570.1   2580.3   2590.6   2441.9   2452.9   2463.9   2474.8

 TRANSPORT PROPERTIES (GASES ONLY)
   CONDUCTIVITY IN UNITS OF MILLIWATTS/(CM)(K)

 VISC,MILLIPOISE  0.22808  0.22944  0.23080  0.23215  0.21277  0.21419  0.21560  0.21701

  WITH EQUILIBRIUM REACTIONS

 Cp, KJ/(KG)(K)   15.2884  15.3101  15.3320  15.3542  15.0694  15.0877  15.1064  15.1254
 CONDUCTIVITY      5.0057   5.0418   5.0780   5.1144   4.6143   4.6495   4.6848   4.7202
 PRANDTL NUMBER    0.6966   0.6967   0.6968   0.6970   0.6949   0.6950   0.6952   0.6954

  WITH FROZEN REACTIONS

 Cp, KJ/(KG)(K)   15.2848  15.3057  15.3268  15.3480  15.0691  15.0872  15.1058  15.1247
 CONDUCTIVITY      5.0036   5.0393   5.0750   5.1107   4.6141   4.6493   4.6845   4.7198
 PRANDTL NUMBER    0.6967   0.6969   0.6970   0.6972   0.6949   0.6951   0.6952   0.6954

 MOLE FRACTIONS

 *H2              1.00000  1.00000  1.00000  1.00000  1.00000  1.00000  1.00000  1.00000

  * THERMODYNAMIC PROPERTIES FITTED TO 20000.K

 NOTE. WEIGHT FRACTION OF FUEL IN TOTAL FUELS AND OF OXIDANT IN TOTAL OXIDANTS









               THERMODYNAMIC EQUILIBRIUM PROPERTIES AT ASSIGNED

                           TEMPERATURE AND PRESSURE

 CASE =                

             REACTANT                    WT FRACTION      ENERGY      TEMP
                                          (SEE NOTE)     KJ/KG-MOL      K  
             H2                           1.0000000         0.000      0.000

 O/F=    0.00000  %FUEL=100.000000  R,EQ.RATIO= 0.000000  PHI,EQ.RATIO= 0.000000

 THERMODYNAMIC PROPERTIES

 P, BAR           0.00350  0.00350  0.00350  0.00350  0.00350  0.00350  0.00350  0.00350
 T, K             1090.00  1100.00  1110.00  1120.00  1130.00  1140.00  1150.00  1160.00
 RHO, KG/CU M    7.7852-5 7.7144-5 7.6449-5 7.5767-5 7.5096-5 7.4438-5 7.3790-5 7.3154-5
 H, KJ/KG         11613.6  11765.2  11916.9  12068.9  12221.0  12373.4  12525.9  12678.7
 U, KJ/KG         7117.93  7228.23  7338.72  7449.42  7560.33  7671.43  7782.75  7894.28
 G, KJ/KG       -105098.8-106170.2-107243.1-108317.3-109392.8-110469.7-111547.9-112627.5
 S, KJ/(KG)(K)   107.0756 107.2140 107.3513 107.4876 107.6228 107.7571 107.8903 108.0226

 M, (1/n)           2.016    2.016    2.016    2.016    2.016    2.016    2.016    2.016
 (dLV/dLP)t      -1.00000 -1.00000 -1.00000 -1.00000 -1.00000 -1.00000 -1.00000 -1.00000
 (dLV/dLT)p        1.0000   1.0000   1.0000   1.0000   1.0000   1.0000   1.0000   1.0000
 Cp, KJ/(KG)(K)   15.1447  15.1643  15.1843  15.2045  15.2250  15.2458  15.2669  15.2882
 GAMMAs            1.3743   1.3736   1.3729   1.3723   1.3716   1.3709   1.3702   1.3695
 SON VEL,M/SEC     2485.6   2496.4   2507.1   2517.7   2528.3   2538.9   2549.3   2559.7

 TRANSPORT PROPERTIES (GASES ONLY)
   CONDUCTIVITY IN UNITS OF MILLIWATTS/(CM)(K)

 VISC,MILLIPOISE  0.21841  0.21980  0.22120  0.22258  0.22396  0.22534  0.22671  0.22808

  WITH EQUILIBRIUM REACTIONS

 Cp, KJ/(KG)(K)   15.1447  15.1643  15.1843  15.2045  15.2250  15.2458  15.2669  15.2882
 CONDUCTIVITY      4.7556   4.7911   4.8266   4.8623   4.8980   4.9338   4.9696   5.0056
 PRANDTL NUMBER    0.6955   0.6957   0.6959   0.6960   0.6962   0.6963   0.6965   0.6966

  WITH FROZEN REACTIONS

 Cp, KJ/(KG)(K)   15.1438  15.1633  15.1830  15.2029  15.2231  15.2435  15.2641  15.2848
 CONDUCTIVITY      4.7551   4.7905   4.8259   4.8614   4.8969   4.9324   4.9680   5.0036
 PRANDTL NUMBER    0.6956   0.6957   0.6959   0.6961   0.6962   0.6964   0.6966   0.6967

 MOLE FRACTIONS

 *H2              1.00000  1.00000  1.00000  1.00000  1.00000  1.00000  1.00000  1.00000

  * THERMODYNAMIC PROPERTIES FITTED TO 20000.K

 NOTE. WEIGHT FRACTION OF FUEL IN TOTAL FUELS AND OF OXIDANT IN TOTAL OXIDANTS









               THERMODYNAMIC EQUILIBRIUM PROPERTIES AT ASSIGNED

                           TEMPERATURE AND PRESSURE

 CASE =                

             REACTANT                    WT FRACTION      ENERGY      TEMP
                                          (SEE NOTE)     KJ/KG-MOL      K  
             H2                           1.0000000         0.000      0.000

 O/F=    0.00000  %FUEL=100.000000  R,EQ.RATIO= 0.000000  PHI,EQ.RATIO= 0.000000

 THERMODYNAMIC PROPERTIES

 P, BAR           0.00350  0.00350  0.00350  0.00390  0.00390  0.00390  0.00390  0.00390
 T, K             1170.00  1180.00  1190.00  1050.00  1060.00  1070.00  1080.00  1090.00
 RHO, KG/CU M    7.2529-5 7.1914-5 7.1310-5 9.0054-5 8.9205-5 8.8371-5 8.7553-5 8.6750-5
 H, KJ/KG         12831.7  12984.9  13138.3  11009.4  11160.1  11311.1  11462.3  11613.6
 U, KJ/KG         8006.03  8117.99  8230.17  6678.64  6788.18  6897.91  7007.82  7117.92
 G, KJ/KG       -113708.4-114790.6-115874.1-100358.4-101419.7-102482.5-103546.7-104612.3
 S, KJ/(KG)(K)   108.1539 108.2843 108.4138 106.0646 106.2074 106.3492 106.4898 106.6293

 M, (1/n)           2.016    2.016    2.016    2.016    2.016    2.016    2.016    2.016
 (dLV/dLP)t      -1.00000 -1.00000 -1.00000 -1.00000 -1.00000 -1.00000 -1.00000 -1.00000
 (dLV/dLT)p        1.0000   1.0000   1.0000   1.0000   1.0000   1.0000   1.0000   1.0000
 Cp, KJ/(KG)(K)   15.3098  15.3317  15.3538  15.0694  15.0877  15.1063  15.1253  15.1446
 GAMMAs            1.3688   1.3681   1.3673   1.3768   1.3762   1.3756   1.3749   1.3743
 SON VEL,M/SEC     2570.1   2580.3   2590.6   2441.9   2452.9   2463.9   2474.8   2485.6

 TRANSPORT PROPERTIES (GASES ONLY)
   CONDUCTIVITY IN UNITS OF MILLIWATTS/(CM)(K)

 VISC,MILLIPOISE  0.22944  0.23080  0.23215  0.21277  0.21419  0.21560  0.21701  0.21841

  WITH EQUILIBRIUM REACTIONS

 Cp, KJ/(KG)(K)   15.3098  15.3317  15.3538  15.0694  15.0877  15.1063  15.1253  15.1446
 CONDUCTIVITY      5.0417   5.0779   5.1142   4.6143   4.6495   4.6848   4.7202   4.7556
 PRANDTL NUMBER    0.6967   0.6969   0.6970   0.6949   0.6950   0.6952   0.6954   0.6955

  WITH FROZEN REACTIONS

 Cp, KJ/(KG)(K)   15.3057  15.3268  15.3480  15.0691  15.0872  15.1058  15.1247  15.1438
 CONDUCTIVITY      5.0393   5.0750   5.1107   4.6141   4.6493   4.6845   4.7198   4.7551
 PRANDTL NUMBER    0.6969   0.6970   0.6972   0.6949   0.6951   0.6952   0.6954   0.6956

 MOLE FRACTIONS

 *H2              1.00000  1.00000  1.00000  1.00000  1.00000  1.00000  1.00000  1.00000

  * THERMODYNAMIC PROPERTIES FITTED TO 20000.K

 NOTE. WEIGHT FRACTION OF FUEL IN TOTAL FUELS AND OF OXIDANT IN TOTAL OXIDANTS









               THERMODYNAMIC EQUILIBRIUM PROPERTIES AT ASSIGNED

                           TEMPERATURE AND PRESSURE

 CASE =                

             REACTANT                    WT FRACTION      ENERGY      TEMP
                                          (SEE NOTE)     KJ/KG-MOL      K  
             H2                           1.0000000         0.000      0.000

 O/F=    0.00000  %FUEL=100.000000  R,EQ.RATIO= 0.000000  PHI,EQ.RATIO= 0.000000

 THERMODYNAMIC PROPERTIES

 P, BAR           0.00390  0.00390  0.00390  0.00390  0.00390  0.00390  0.00390  0.00390
 T, K             1100.00  1110.00  1120.00  1130.00  1140.00  1150.00  1160.00  1170.00
 RHO, KG/CU M    8.5961-5 8.5187-5 8.4426-5 8.3679-5 8.2945-5 8.2224-5 8.1515-5 8.0818-5
 H, KJ/KG         11765.2  11916.9  12068.8  12221.0  12373.3  12525.9  12678.7  12831.7
 U, KJ/KG         7228.22  7338.72  7449.42  7560.32  7671.43  7782.75  7894.27  8006.02
 G, KJ/KG       -105679.3-106747.6-107817.4-108888.5-109960.9-111034.7-112109.8-113186.2
 S, KJ/(KG)(K)   106.7677 106.9050 107.0413 107.1765 107.3107 107.4440 107.5763 107.7076

 M, (1/n)           2.016    2.016    2.016    2.016    2.016    2.016    2.016    2.016
 (dLV/dLP)t      -1.00000 -1.00000 -1.00000 -1.00000 -1.00000 -1.00000 -1.00000 -1.00000
 (dLV/dLT)p        1.0000   1.0000   1.0000   1.0000   1.0000   1.0000   1.0000   1.0000
 Cp, KJ/(KG)(K)   15.1643  15.1842  15.2044  15.2249  15.2457  15.2667  15.2880  15.3096
 GAMMAs            1.3736   1.3729   1.3723   1.3716   1.3709   1.3702   1.3695   1.3688
 SON VEL,M/SEC     2496.4   2507.1   2517.8   2528.3   2538.9   2549.3   2559.7   2570.1

 TRANSPORT PROPERTIES (GASES ONLY)
   CONDUCTIVITY IN UNITS OF MILLIWATTS/(CM)(K)

 VISC,MILLIPOISE  0.21980  0.22120  0.22258  0.22396  0.22534  0.22671  0.22808  0.22944

  WITH EQUILIBRIUM REACTIONS

 Cp, KJ/(KG)(K)   15.1643  15.1842  15.2044  15.2249  15.2457  15.2667  15.2880  15.3096
 CONDUCTIVITY      4.7910   4.8266   4.8622   4.8979   4.9337   4.9695   5.0055   5.0415
 PRANDTL NUMBER    0.6957   0.6959   0.6960   0.6962   0.6963   0.6965   0.6966   0.6967

  WITH FROZEN REACTIONS

 Cp, KJ/(KG)(K)   15.1633  15.1830  15.2029  15.2231  15.2435  15.2641  15.2848  15.3057
 CONDUCTIVITY      4.7905   4.8259   4.8614   4.8969   4.9324   4.9680   5.0036   5.0393
 PRANDTL NUMBER    0.6957   0.6959   0.6961   0.6962   0.6964   0.6966   0.6967   0.6969

 MOLE FRACTIONS

 *H2              1.00000  1.00000  1.00000  1.00000  1.00000  1.00000  1.00000  1.00000

  * THERMODYNAMIC PROPERTIES FITTED TO 20000.K

 NOTE. WEIGHT FRACTION OF FUEL IN TOTAL FUELS AND OF OXIDANT IN TOTAL OXIDANTS









               THERMODYNAMIC EQUILIBRIUM PROPERTIES AT ASSIGNED

                           TEMPERATURE AND PRESSURE

 CASE =                

             REACTANT                    WT FRACTION      ENERGY      TEMP
                                          (SEE NOTE)     KJ/KG-MOL      K  
             H2                           1.0000000         0.000      0.000

 O/F=    0.00000  %FUEL=100.000000  R,EQ.RATIO= 0.000000  PHI,EQ.RATIO= 0.000000

 THERMODYNAMIC PROPERTIES

 P, BAR           0.00390  0.00390  0.00440  0.00440  0.00440  0.00440  0.00440  0.00440
 T, K             1180.00  1190.00  1050.00  1060.00  1070.00  1080.00  1090.00  1100.00
 RHO, KG/CU M    8.0133-5 7.9460-5 1.0160-4 1.0064-4 9.9701-5 9.8778-5 9.7871-5 9.6982-5
 H, KJ/KG         12984.9  13138.3  11009.4  11160.1  11311.1  11462.3  11613.6  11765.2
 U, KJ/KG         8117.97  8230.15  6678.64  6788.18  6897.91  7007.82  7117.92  7228.22
 G, KJ/KG       -114263.9-115342.9 -99836.0-100892.4-101950.1-103009.4-104070.0-105132.0
 S, KJ/(KG)(K)   107.8380 107.9674 105.5670 105.7099 105.8516 105.9922 106.1317 106.2701

 M, (1/n)           2.016    2.016    2.016    2.016    2.016    2.016    2.016    2.016
 (dLV/dLP)t      -1.00000 -1.00000 -1.00000 -1.00000 -1.00000 -1.00000 -1.00000 -1.00000
 (dLV/dLT)p        1.0000   1.0000   1.0000   1.0000   1.0000   1.0000   1.0000   1.0000
 Cp, KJ/(KG)(K)   15.3314  15.3535  15.0694  15.0877  15.1063  15.1253  15.1446  15.1642
 GAMMAs            1.3681   1.3673   1.3769   1.3762   1.3756   1.3749   1.3743   1.3736
 SON VEL,M/SEC     2580.4   2590.6   2441.9   2452.9   2463.9   2474.8   2485.6   2496.4

 TRANSPORT PROPERTIES (GASES ONLY)
   CONDUCTIVITY IN UNITS OF MILLIWATTS/(CM)(K)

 VISC,MILLIPOISE  0.23080  0.23215  0.21277  0.21419  0.21560  0.21701  0.21841  0.21980

  WITH EQUILIBRIUM REACTIONS

 Cp, KJ/(KG)(K)   15.3314  15.3535  15.0694  15.0877  15.1063  15.1253  15.1446  15.1642
 CONDUCTIVITY      5.0777   5.1140   4.6143   4.6495   4.6848   4.7201   4.7555   4.7910
 PRANDTL NUMBER    0.6969   0.6970   0.6949   0.6950   0.6952   0.6954   0.6955   0.6957

  WITH FROZEN REACTIONS

 Cp, KJ/(KG)(K)   15.3268  15.3480  15.0691  15.0872  15.1058  15.1247  15.1438  15.1633
 CONDUCTIVITY      5.0750   5.1107   4.6141   4.6493   4.6845   4.7198   4.7551   4.7905
 PRANDTL NUMBER    0.6970   0.6972   0.6949   0.6951   0.6952   0.6954   0.6956   0.6957

 MOLE FRACTIONS

 *H2              1.00000  1.00000  1.00000  1.00000  1.00000  1.00000  1.00000  1.00000

  * THERMODYNAMIC PROPERTIES FITTED TO 20000.K

 NOTE. WEIGHT FRACTION OF FUEL IN TOTAL FUELS AND OF OXIDANT IN TOTAL OXIDANTS









               THERMODYNAMIC EQUILIBRIUM PROPERTIES AT ASSIGNED

                           TEMPERATURE AND PRESSURE

 CASE =                

             REACTANT                    WT FRACTION      ENERGY      TEMP
                                          (SEE NOTE)     KJ/KG-MOL      K  
             H2                           1.0000000         0.000      0.000

 O/F=    0.00000  %FUEL=100.000000  R,EQ.RATIO= 0.000000  PHI,EQ.RATIO= 0.000000

 THERMODYNAMIC PROPERTIES

 P, BAR           0.00440  0.00440  0.00440  0.00440  0.00440  0.00440  0.00440  0.00440
 T, K             1110.00  1120.00  1130.00  1140.00  1150.00  1160.00  1170.00  1180.00
 RHO, KG/CU M    9.6108-5 9.5250-5 9.4407-5 9.3579-5 9.2765-5 9.1965-5 9.1179-5 9.0407-5
 H, KJ/KG         11916.9  12068.8  12221.0  12373.3  12525.9  12678.7  12831.7  12984.9
 U, KJ/KG         7338.72  7449.42  7560.32  7671.42  7782.74  7894.26  8006.00  8117.96
 G, KJ/KG       -106195.4-107260.1-108326.2-109393.7-110462.5-111532.6-112604.1-113676.8
 S, KJ/(KG)(K)   106.4075 106.5437 106.6790 106.8132 106.9464 107.0787 107.2100 107.3404

 M, (1/n)           2.016    2.016    2.016    2.016    2.016    2.016    2.016    2.016
 (dLV/dLP)t      -1.00000 -1.00000 -1.00000 -1.00000 -1.00000 -1.00000 -1.00000 -1.00000
 (dLV/dLT)p        1.0000   1.0000   1.0000   1.0000   1.0000   1.0000   1.0000   1.0000
 Cp, KJ/(KG)(K)   15.1841  15.2044  15.2248  15.2456  15.2666  15.2878  15.3094  15.3311
 GAMMAs            1.3729   1.3723   1.3716   1.3709   1.3702   1.3695   1.3688   1.3681
 SON VEL,M/SEC     2507.1   2517.8   2528.3   2538.9   2549.3   2559.7   2570.1   2580.4

 TRANSPORT PROPERTIES (GASES ONLY)
   CONDUCTIVITY IN UNITS OF MILLIWATTS/(CM)(K)

 VISC,MILLIPOISE  0.22120  0.22258  0.22396  0.22534  0.22671  0.22808  0.22944  0.23080

  WITH EQUILIBRIUM REACTIONS

 Cp, KJ/(KG)(K)   15.1841  15.2044  15.2248  15.2456  15.2666  15.2878  15.3094  15.3311
 CONDUCTIVITY      4.8266   4.8622   4.8978   4.9336   4.9694   5.0054   5.0414   5.0776
 PRANDTL NUMBER    0.6959   0.6960   0.6962   0.6963   0.6965   0.6966   0.6967   0.6969

  WITH FROZEN REACTIONS

 Cp, KJ/(KG)(K)   15.1830  15.2029  15.2231  15.2435  15.2641  15.2848  15.3057  15.3268
 CONDUCTIVITY      4.8259   4.8614   4.8969   4.9324   4.9680   5.0036   5.0393   5.0750
 PRANDTL NUMBER    0.6959   0.6961   0.6962   0.6964   0.6966   0.6967   0.6969   0.6970

 MOLE FRACTIONS

 *H2              1.00000  1.00000  1.00000  1.00000  1.00000  1.00000  1.00000  1.00000

  * THERMODYNAMIC PROPERTIES FITTED TO 20000.K

 NOTE. WEIGHT FRACTION OF FUEL IN TOTAL FUELS AND OF OXIDANT IN TOTAL OXIDANTS









               THERMODYNAMIC EQUILIBRIUM PROPERTIES AT ASSIGNED

                           TEMPERATURE AND PRESSURE

 CASE =                

             REACTANT                    WT FRACTION      ENERGY      TEMP
                                          (SEE NOTE)     KJ/KG-MOL      K  
             H2                           1.0000000         0.000      0.000

 O/F=    0.00000  %FUEL=100.000000  R,EQ.RATIO= 0.000000  PHI,EQ.RATIO= 0.000000

 THERMODYNAMIC PROPERTIES

 P, BAR           0.00440
 T, K             1190.00
 RHO, KG/CU M    8.9647-5
 H, KJ/KG         13138.3
 U, KJ/KG         8230.14
 G, KJ/KG       -114750.9
 S, KJ/(KG)(K)   107.4699

 M, (1/n)           2.016
 (dLV/dLP)t      -1.00000
 (dLV/dLT)p        1.0000
 Cp, KJ/(KG)(K)   15.3532
 GAMMAs            1.3674
 SON VEL,M/SEC     2590.6

 TRANSPORT PROPERTIES (GASES ONLY)
   CONDUCTIVITY IN UNITS OF MILLIWATTS/(CM)(K)

 VISC,MILLIPOISE  0.23215

  WITH EQUILIBRIUM REACTIONS

 Cp, KJ/(KG)(K)   15.3532
 CONDUCTIVITY      5.1138
 PRANDTL NUMBER    0.6970

  WITH FROZEN REACTIONS

 Cp, KJ/(KG)(K)   15.3480
 CONDUCTIVITY      5.1107
 PRANDTL NUMBER    0.6972

 MOLE FRACTIONS

 *H2              1.00000

  * THERMODYNAMIC PROPERTIES FITTED TO 20000.K

 NOTE. WEIGHT FRACTION OF FUEL IN TOTAL FUELS AND OF OXIDANT IN TOTAL OXIDANTS



  
