
 *******************************************************************************

         NASA-GLENN CHEMICAL EQUILIBRIUM PROGRAM CEA2, MAY 21, 2004
                   BY  BONNIE MCBRIDE AND SANFORD GORDON
      REFS: NASA RP-1311, PART I, 1994 AND NASA RP-1311, PART II, 1996

 *******************************************************************************



  prob tp ions
  p,bar= 60.0,67.0,74.0,82.5,91.0,100.0,110.0,120.0,132.0,148.0,165.0,180.0,200.0
 ,225.0,250.0
  t,k= 3300,3310,3320,3330,3340,3350,3360,3370,3380,3390,3400,3410,3420,3430,3440
  
  reac
  na H2                wt%=100.0000
  
  output short
  output siunits
  output transport
  
 end





               THERMODYNAMIC EQUILIBRIUM PROPERTIES AT ASSIGNED

                           TEMPERATURE AND PRESSURE

 CASE =                

             REACTANT                    WT FRACTION      ENERGY      TEMP
                                          (SEE NOTE)     KJ/KG-MOL      K  
             H2                           1.0000000         0.000      0.000

 O/F=    0.00000  %FUEL=100.000000  R,EQ.RATIO= 0.000000  PHI,EQ.RATIO= 0.000000

 THERMODYNAMIC PROPERTIES

 P, BAR            60.000   60.000   60.000   60.000   60.000   60.000   60.000   60.000
 T, K             3300.00  3310.00  3320.00  3330.00  3340.00  3350.00  3360.00  3370.00
 RHO, KG/CU M    4.3066-1 4.2910-1 4.2755-1 4.2601-1 4.2446-1 4.2293-1 4.2139-1 4.1987-1
 H, KJ/KG         54980.0  55306.1  55635.2  55967.1  56302.0  56639.8  56980.5  57324.2
 U, KJ/KG         41047.8  41323.4  41601.8  41882.8  42166.5  42452.9  42742.1  43034.0
 G, KJ/KG       -233296.8-234170.0-235045.0-235921.0-236798.1-237676.1-238555.2-239435.3
 S, KJ/(KG)(K)    87.3566  87.4550  87.5543  87.6541  87.7545  87.8555  87.9570  88.0592

 M, (1/n)           1.969    1.968    1.967    1.966    1.965    1.963    1.962    1.961
 (dLV/dLP)t      -1.01152 -1.01181 -1.01211 -1.01241 -1.01271 -1.01302 -1.01334 -1.01366
 (dLV/dLT)p        1.1936   1.1978   1.2022   1.2066   1.2110   1.2155   1.2201   1.2248
 Cp, KJ/(KG)(K)   32.4872  32.7679  33.0519  33.3393  33.6301  33.9243  34.2218  34.5226
 GAMMAs            1.2101   1.2094   1.2088   1.2081   1.2075   1.2069   1.2063   1.2057
 SON VEL,M/SEC     4106.0   4112.3   4118.6   4125.0   4131.4   4137.9   4144.3   4150.8

 TRANSPORT PROPERTIES (GASES ONLY)
   CONDUCTIVITY IN UNITS OF MILLIWATTS/(CM)(K)

 VISC,MILLIPOISE  0.50495  0.50649  0.50804  0.50960  0.51116  0.51273  0.51430  0.51589

  WITH EQUILIBRIUM REACTIONS

 Cp, KJ/(KG)(K)   32.4872  32.7679  33.0519  33.3393  33.6301  33.9243  34.2218  34.5226
 CONDUCTIVITY     32.2240  32.6795  33.1418  33.6101  34.0845  34.5649  35.0514  35.5440
 PRANDTL NUMBER    0.5091   0.5079   0.5067   0.5055   0.5043   0.5032   0.5021   0.5011

  WITH FROZEN REACTIONS

 Cp, KJ/(KG)(K)   18.7606  18.7718  18.7830  18.7941  18.8053  18.8165  18.8276  18.8387
 CONDUCTIVITY     13.5410  13.5913  13.6426  13.6941  13.7459  13.7978  13.8500  13.9024
 PRANDTL NUMBER    0.6996   0.6995   0.6995   0.6994   0.6993   0.6992   0.6991   0.6991

 MOLE FRACTIONS

 *H               0.04613  0.04728  0.04846  0.04966  0.05088  0.05212  0.05339  0.05467
 *H2              0.95387  0.95272  0.95154  0.95034  0.94912  0.94788  0.94661  0.94533

  * THERMODYNAMIC PROPERTIES FITTED TO 20000.K

 NOTE. WEIGHT FRACTION OF FUEL IN TOTAL FUELS AND OF OXIDANT IN TOTAL OXIDANTS









               THERMODYNAMIC EQUILIBRIUM PROPERTIES AT ASSIGNED

                           TEMPERATURE AND PRESSURE

 CASE =                

             REACTANT                    WT FRACTION      ENERGY      TEMP
                                          (SEE NOTE)     KJ/KG-MOL      K  
             H2                           1.0000000         0.000      0.000

 O/F=    0.00000  %FUEL=100.000000  R,EQ.RATIO= 0.000000  PHI,EQ.RATIO= 0.000000

 THERMODYNAMIC PROPERTIES

 P, BAR            60.000   60.000   60.000   60.000   60.000   60.000   60.000   67.000
 T, K             3380.00  3390.00  3400.00  3410.00  3420.00  3430.00  3440.00  3300.00
 RHO, KG/CU M    4.1834-1 4.1682-1 4.1531-1 4.1380-1 4.1229-1 4.1079-1 4.0929-1 4.8150-1
 H, KJ/KG         57670.9  58020.7  58373.6  58729.7  59088.9  59451.2  59816.9  54690.3
 U, KJ/KG         43328.7  43626.2  43926.5  44229.8  44536.0  44845.1  45157.2  40775.3
 G, KJ/KG       -240316.4-241198.5-242081.7-242965.9-243851.2-244737.5-245624.9-231759.5
 S, KJ/(KG)(K)    88.1619  88.2653  88.3692  88.4738  88.5790  88.6848  88.7912  86.8030

 M, (1/n)           1.959    1.958    1.957    1.955    1.954    1.953    1.951    1.972
 (dLV/dLP)t      -1.01398 -1.01432 -1.01465 -1.01500 -1.01535 -1.01570 -1.01606 -1.01092
 (dLV/dLT)p        1.2295   1.2342   1.2391   1.2440   1.2489   1.2540   1.2591   1.1834
 Cp, KJ/(KG)(K)   34.8269  35.1346  35.4456  35.7601  36.0779  36.3992  36.7239  31.7490
 GAMMAs            1.2051   1.2045   1.2039   1.2034   1.2028   1.2023   1.2018   1.2122
 SON VEL,M/SEC     4157.4   4163.9   4170.5   4177.2   4183.9   4190.6   4197.3   4107.1

 TRANSPORT PROPERTIES (GASES ONLY)
   CONDUCTIVITY IN UNITS OF MILLIWATTS/(CM)(K)

 VISC,MILLIPOISE  0.51747  0.51907  0.52067  0.52228  0.52390  0.52552  0.52715  0.50430

  WITH EQUILIBRIUM REACTIONS

 Cp, KJ/(KG)(K)   34.8269  35.1346  35.4456  35.7601  36.0779  36.3992  36.7239  31.7490
 CONDUCTIVITY     36.0427  36.5475  37.0583  37.5754  38.0985  38.6278  39.1632  31.2205
 PRANDTL NUMBER    0.5000   0.4990   0.4980   0.4970   0.4961   0.4952   0.4943   0.5128

  WITH FROZEN REACTIONS

 Cp, KJ/(KG)(K)   18.8498  18.8609  18.8720  18.8831  18.8941  18.9052  18.9162  18.7582
 CONDUCTIVITY     13.9551  14.0079  14.0610  14.1143  14.1678  14.2215  14.2755  13.5169
 PRANDTL NUMBER    0.6990   0.6989   0.6988   0.6987   0.6987   0.6986   0.6985   0.6998

 MOLE FRACTIONS

 *H               0.05598  0.05731  0.05867  0.06004  0.06144  0.06287  0.06431  0.04371
 *H2              0.94402  0.94269  0.94133  0.93996  0.93856  0.93713  0.93569  0.95629

  * THERMODYNAMIC PROPERTIES FITTED TO 20000.K

 NOTE. WEIGHT FRACTION OF FUEL IN TOTAL FUELS AND OF OXIDANT IN TOTAL OXIDANTS









               THERMODYNAMIC EQUILIBRIUM PROPERTIES AT ASSIGNED

                           TEMPERATURE AND PRESSURE

 CASE =                

             REACTANT                    WT FRACTION      ENERGY      TEMP
                                          (SEE NOTE)     KJ/KG-MOL      K  
             H2                           1.0000000         0.000      0.000

 O/F=    0.00000  %FUEL=100.000000  R,EQ.RATIO= 0.000000  PHI,EQ.RATIO= 0.000000

 THERMODYNAMIC PROPERTIES

 P, BAR            67.000   67.000   67.000   67.000   67.000   67.000   67.000   67.000
 T, K             3310.00  3320.00  3330.00  3340.00  3350.00  3360.00  3370.00  3380.00
 RHO, KG/CU M    4.7977-1 4.7805-1 4.7634-1 4.7463-1 4.7293-1 4.7123-1 4.6954-1 4.6785-1
 H, KJ/KG         55009.1  55330.6  55654.8  55981.7  56311.5  56644.0  56979.4  57317.6
 U, KJ/KG         41044.1  41315.4  41589.2  41865.6  42144.5  42426.0  42710.1  42996.8
 G, KJ/KG       -232628.0-233497.4-234367.9-235239.3-236111.7-236985.1-237859.5-238734.9
 S, KJ/(KG)(K)    86.8994  86.9964  87.0939  87.1919  87.2905  87.3896  87.4893  87.5895

 M, (1/n)           1.971    1.970    1.968    1.967    1.966    1.965    1.964    1.962
 (dLV/dLP)t      -1.01120 -1.01147 -1.01176 -1.01205 -1.01234 -1.01264 -1.01295 -1.01326
 (dLV/dLT)p        1.1875   1.1916   1.1958   1.2000   1.2043   1.2086   1.2130   1.2175
 Cp, KJ/(KG)(K)   32.0153  32.2848  32.5574  32.8332  33.1122  33.3944  33.6798  33.9684
 GAMMAs            1.2116   1.2109   1.2103   1.2096   1.2090   1.2084   1.2078   1.2072
 SON VEL,M/SEC     4113.3   4119.6   4125.9   4132.3   4138.6   4145.0   4151.4   4157.9

 TRANSPORT PROPERTIES (GASES ONLY)
   CONDUCTIVITY IN UNITS OF MILLIWATTS/(CM)(K)

 VISC,MILLIPOISE  0.50582  0.50736  0.50889  0.51044  0.51199  0.51355  0.51511  0.51668

  WITH EQUILIBRIUM REACTIONS

 Cp, KJ/(KG)(K)   32.0153  32.2848  32.5574  32.8332  33.1122  33.3944  33.6798  33.9684
 CONDUCTIVITY     31.6556  32.0965  32.5432  32.9956  33.4538  33.9178  34.3877  34.8634
 PRANDTL NUMBER    0.5116   0.5103   0.5091   0.5079   0.5068   0.5056   0.5045   0.5034

  WITH FROZEN REACTIONS

 Cp, KJ/(KG)(K)   18.7693  18.7805  18.7916  18.8027  18.8138  18.8249  18.8359  18.8470
 CONDUCTIVITY     13.5674  13.6182  13.6692  13.7204  13.7718  13.8234  13.8752  13.9273
 PRANDTL NUMBER    0.6998   0.6997   0.6996   0.6995   0.6994   0.6994   0.6993   0.6992

 MOLE FRACTIONS

 *H               0.04480  0.04592  0.04706  0.04822  0.04940  0.05060  0.05182  0.05306
 *H2              0.95520  0.95408  0.95294  0.95178  0.95060  0.94940  0.94818  0.94694

  * THERMODYNAMIC PROPERTIES FITTED TO 20000.K

 NOTE. WEIGHT FRACTION OF FUEL IN TOTAL FUELS AND OF OXIDANT IN TOTAL OXIDANTS









               THERMODYNAMIC EQUILIBRIUM PROPERTIES AT ASSIGNED

                           TEMPERATURE AND PRESSURE

 CASE =                

             REACTANT                    WT FRACTION      ENERGY      TEMP
                                          (SEE NOTE)     KJ/KG-MOL      K  
             H2                           1.0000000         0.000      0.000

 O/F=    0.00000  %FUEL=100.000000  R,EQ.RATIO= 0.000000  PHI,EQ.RATIO= 0.000000

 THERMODYNAMIC PROPERTIES

 P, BAR            67.000   67.000   67.000   67.000   67.000   67.000   74.000   74.000
 T, K             3390.00  3400.00  3410.00  3420.00  3430.00  3440.00  3300.00  3310.00
 RHO, KG/CU M    4.6617-1 4.6449-1 4.6282-1 4.6115-1 4.5948-1 4.5782-1 5.3237-1 5.3047-1
 H, KJ/KG         57658.7  58002.8  58349.9  58699.9  59053.0  59409.1  54442.8  54755.3
 U, KJ/KG         43286.3  43578.4  43873.3  44171.0  44471.4  44774.7  40542.6  40805.5
 G, KJ/KG       -239611.3-240488.7-241367.2-242246.6-243127.1-244008.6-230377.5-231241.0
 S, KJ/(KG)(K)    87.6903  87.7916  87.8936  87.9961  88.0991  88.2028  86.3092  86.4037

 M, (1/n)           1.961    1.960    1.959    1.957    1.956    1.954    1.974    1.973
 (dLV/dLP)t      -1.01357 -1.01389 -1.01422 -1.01455 -1.01488 -1.01523 -1.01040 -1.01066
 (dLV/dLT)p        1.2220   1.2266   1.2313   1.2360   1.2408   1.2456   1.1747   1.1786
 Cp, KJ/(KG)(K)   34.2603  34.5553  34.8536  35.1551  35.4598  35.7677  31.1182  31.3721
 GAMMAs            1.2066   1.2060   1.2055   1.2049   1.2044   1.2038   1.2142   1.2135
 SON VEL,M/SEC     4164.4   4170.9   4177.4   4184.0   4190.6   4197.3   4108.2   4114.4

 TRANSPORT PROPERTIES (GASES ONLY)
   CONDUCTIVITY IN UNITS OF MILLIWATTS/(CM)(K)

 VISC,MILLIPOISE  0.51826  0.51985  0.52144  0.52303  0.52464  0.52625  0.50373  0.50525

  WITH EQUILIBRIUM REACTIONS

 Cp, KJ/(KG)(K)   34.2603  34.5553  34.8536  35.1551  35.4598  35.7677  31.1182  31.3721
 CONDUCTIVITY     35.3449  35.8323  36.3256  36.8247  37.3297  37.8406  30.3613  30.7782
 PRANDTL NUMBER    0.5024   0.5013   0.5003   0.4993   0.4984   0.4974   0.5163   0.5150

  WITH FROZEN REACTIONS

 Cp, KJ/(KG)(K)   18.8580  18.8691  18.8801  18.8911  18.9021  18.9131  18.7561  18.7672
 CONDUCTIVITY     13.9795  14.0320  14.0847  14.1376  14.1908  14.2441  13.4968  13.5469
 PRANDTL NUMBER    0.6991   0.6990   0.6990   0.6989   0.6988   0.6987   0.7000   0.6999

 MOLE FRACTIONS

 *H               0.05432  0.05561  0.05692  0.05824  0.05960  0.06097  0.04163  0.04268
 *H2              0.94568  0.94439  0.94308  0.94176  0.94040  0.93903  0.95837  0.95732

  * THERMODYNAMIC PROPERTIES FITTED TO 20000.K

 NOTE. WEIGHT FRACTION OF FUEL IN TOTAL FUELS AND OF OXIDANT IN TOTAL OXIDANTS









               THERMODYNAMIC EQUILIBRIUM PROPERTIES AT ASSIGNED

                           TEMPERATURE AND PRESSURE

 CASE =                

             REACTANT                    WT FRACTION      ENERGY      TEMP
                                          (SEE NOTE)     KJ/KG-MOL      K  
             H2                           1.0000000         0.000      0.000

 O/F=    0.00000  %FUEL=100.000000  R,EQ.RATIO= 0.000000  PHI,EQ.RATIO= 0.000000

 THERMODYNAMIC PROPERTIES

 P, BAR            74.000   74.000   74.000   74.000   74.000   74.000   74.000   74.000
 T, K             3320.00  3330.00  3340.00  3350.00  3360.00  3370.00  3380.00  3390.00
 RHO, KG/CU M    5.2859-1 5.2671-1 5.2483-1 5.2297-1 5.2110-1 5.1925-1 5.1740-1 5.1555-1
 H, KJ/KG         55070.3  55387.8  55708.1  56030.9  56356.4  56684.7  57015.6  57349.4
 U, KJ/KG         41070.7  41338.3  41608.4  41880.8  42155.8  42433.3  42713.3  42995.8
 G, KJ/KG       -232105.5-232971.0-233837.4-234704.8-235573.1-236442.5-237312.8-238184.0
 S, KJ/(KG)(K)    86.4987  86.5942  86.6903  86.7868  86.8838  86.9813  87.0794  87.1780

 M, (1/n)           1.972    1.971    1.970    1.968    1.967    1.966    1.965    1.964
 (dLV/dLP)t      -1.01093 -1.01120 -1.01148 -1.01176 -1.01204 -1.01233 -1.01263 -1.01293
 (dLV/dLT)p        1.1825   1.1865   1.1905   1.1946   1.1988   1.2030   1.2072   1.2116
 Cp, KJ/(KG)(K)   31.6291  31.8890  32.1520  32.4181  32.6872  32.9594  33.2346  33.5128
 GAMMAs            1.2128   1.2122   1.2116   1.2109   1.2103   1.2097   1.2091   1.2085
 SON VEL,M/SEC     4120.6   4126.8   4133.1   4139.4   4145.7   4152.1   4158.5   4164.9

 TRANSPORT PROPERTIES (GASES ONLY)
   CONDUCTIVITY IN UNITS OF MILLIWATTS/(CM)(K)

 VISC,MILLIPOISE  0.50676  0.50829  0.50982  0.51136  0.51290  0.51445  0.51600  0.51756

  WITH EQUILIBRIUM REACTIONS

 Cp, KJ/(KG)(K)   31.6291  31.8890  32.1520  32.4181  32.6872  32.9594  33.2346  33.5128
 CONDUCTIVITY     31.2007  31.6287  32.0623  32.5014  32.9461  33.3964  33.8523  34.3138
 PRANDTL NUMBER    0.5137   0.5125   0.5112   0.5100   0.5089   0.5077   0.5066   0.5055

  WITH FROZEN REACTIONS

 Cp, KJ/(KG)(K)   18.7783  18.7894  18.8005  18.8115  18.8226  18.8336  18.8446  18.8556
 CONDUCTIVITY     13.5971  13.6476  13.6983  13.7492  13.8004  13.8517  13.9032  13.9550
 PRANDTL NUMBER    0.6999   0.6998   0.6997   0.6996   0.6996   0.6995   0.6994   0.6993

 MOLE FRACTIONS

 *H               0.04375  0.04483  0.04594  0.04706  0.04820  0.04937  0.05055  0.05176
 *H2              0.95625  0.95517  0.95406  0.95294  0.95180  0.95063  0.94945  0.94824

  * THERMODYNAMIC PROPERTIES FITTED TO 20000.K

 NOTE. WEIGHT FRACTION OF FUEL IN TOTAL FUELS AND OF OXIDANT IN TOTAL OXIDANTS









               THERMODYNAMIC EQUILIBRIUM PROPERTIES AT ASSIGNED

                           TEMPERATURE AND PRESSURE

 CASE =                

             REACTANT                    WT FRACTION      ENERGY      TEMP
                                          (SEE NOTE)     KJ/KG-MOL      K  
             H2                           1.0000000         0.000      0.000

 O/F=    0.00000  %FUEL=100.000000  R,EQ.RATIO= 0.000000  PHI,EQ.RATIO= 0.000000

 THERMODYNAMIC PROPERTIES

 P, BAR            74.000   74.000   74.000   74.000   74.000   82.500   82.500   82.500
 T, K             3400.00  3410.00  3420.00  3430.00  3440.00  3300.00  3310.00  3320.00
 RHO, KG/CU M    5.1371-1 5.1188-1 5.1005-1 5.0822-1 5.0640-1 5.9417-1 5.9207-1 5.8999-1
 H, KJ/KG         57685.9  58025.2  58367.5  58712.6  59060.6  54185.8  54491.6  54799.8
 U, KJ/KG         43280.9  43568.7  43859.0  44152.1  44447.8  40300.8  40557.5  40816.5
 G, KJ/KG       -239056.3-239929.6-240803.9-241679.1-242555.4-228866.9-229725.1-230584.2
 S, KJ/(KG)(K)    87.2771  87.3768  87.4770  87.5778  87.6791  85.7735  85.8661  85.9590

 M, (1/n)           1.962    1.961    1.960    1.959    1.957    1.976    1.975    1.974
 (dLV/dLP)t      -1.01324 -1.01355 -1.01386 -1.01419 -1.01451 -1.00986 -1.01011 -1.01037
 (dLV/dLT)p        1.2160   1.2204   1.2249   1.2295   1.2341   1.1657   1.1694   1.1731
 Cp, KJ/(KG)(K)   33.7942  34.0786  34.3661  34.6567  34.9503  30.4627  30.7038  30.9478
 GAMMAs            1.2079   1.2073   1.2068   1.2062   1.2057   1.2163   1.2156   1.2149
 SON VEL,M/SEC     4171.3   4177.8   4184.3   4190.9   4197.4   4109.5   4115.6   4121.8

 TRANSPORT PROPERTIES (GASES ONLY)
   CONDUCTIVITY IN UNITS OF MILLIWATTS/(CM)(K)

 VISC,MILLIPOISE  0.51913  0.52071  0.52229  0.52388  0.52547  0.50314  0.50464  0.50615

  WITH EQUILIBRIUM REACTIONS

 Cp, KJ/(KG)(K)   33.7942  34.0786  34.3661  34.6567  34.9503  30.4627  30.7038  30.9478
 CONDUCTIVITY     34.7809  35.2537  35.7321  36.2162  36.7060  29.4666  29.8645  30.2677
 PRANDTL NUMBER    0.5044   0.5034   0.5023   0.5013   0.5003   0.5202   0.5188   0.5175

  WITH FROZEN REACTIONS

 Cp, KJ/(KG)(K)   18.8666  18.8775  18.8885  18.8994  18.9104  18.7540  18.7650  18.7761
 CONDUCTIVITY     14.0069  14.0591  14.1115  14.1641  14.2169  13.4757  13.5253  13.5751
 PRANDTL NUMBER    0.6992   0.6992   0.6991   0.6990   0.6989   0.7002   0.7001   0.7001

 MOLE FRACTIONS

 *H               0.05299  0.05423  0.05550  0.05679  0.05810  0.03947  0.04047  0.04148
 *H2              0.94701  0.94577  0.94450  0.94321  0.94190  0.96053  0.95953  0.95852

  * THERMODYNAMIC PROPERTIES FITTED TO 20000.K

 NOTE. WEIGHT FRACTION OF FUEL IN TOTAL FUELS AND OF OXIDANT IN TOTAL OXIDANTS









               THERMODYNAMIC EQUILIBRIUM PROPERTIES AT ASSIGNED

                           TEMPERATURE AND PRESSURE

 CASE =                

             REACTANT                    WT FRACTION      ENERGY      TEMP
                                          (SEE NOTE)     KJ/KG-MOL      K  
             H2                           1.0000000         0.000      0.000

 O/F=    0.00000  %FUEL=100.000000  R,EQ.RATIO= 0.000000  PHI,EQ.RATIO= 0.000000

 THERMODYNAMIC PROPERTIES

 P, BAR            82.500   82.500   82.500   82.500   82.500   82.500   82.500   82.500
 T, K             3330.00  3340.00  3350.00  3360.00  3370.00  3380.00  3390.00  3400.00
 RHO, KG/CU M    5.8791-1 5.8583-1 5.8376-1 5.8170-1 5.7965-1 5.7760-1 5.7556-1 5.7352-1
 H, KJ/KG         55110.5  55423.7  55739.4  56057.7  56378.5  56701.9  57027.9  57356.6
 U, KJ/KG         41077.7  41341.2  41607.0  41875.2  42145.7  42418.7  42694.0  42971.9
 G, KJ/KG       -231444.2-232305.2-233167.2-234030.0-234893.9-235758.7-236624.4-237491.1
 S, KJ/(KG)(K)    86.0525  86.1464  86.2408  86.3356  86.4310  86.5268  86.6231  86.7199

 M, (1/n)           1.973    1.972    1.971    1.970    1.969    1.968    1.966    1.965
 (dLV/dLP)t      -1.01062 -1.01088 -1.01115 -1.01142 -1.01170 -1.01198 -1.01226 -1.01256
 (dLV/dLT)p        1.1768   1.1807   1.1846   1.1885   1.1925   1.1966   1.2007   1.2048
 Cp, KJ/(KG)(K)   31.1946  31.4443  31.6969  31.9524  32.2108  32.4720  32.7362  33.0033
 GAMMAs            1.2143   1.2136   1.2130   1.2124   1.2118   1.2112   1.2106   1.2100
 SON VEL,M/SEC     4128.0   4134.2   4140.4   4146.6   4152.9   4159.2   4165.6   4172.0

 TRANSPORT PROPERTIES (GASES ONLY)
   CONDUCTIVITY IN UNITS OF MILLIWATTS/(CM)(K)

 VISC,MILLIPOISE  0.50765  0.50917  0.51069  0.51222  0.51375  0.51529  0.51683  0.51839

  WITH EQUILIBRIUM REACTIONS

 Cp, KJ/(KG)(K)   31.1946  31.4443  31.6969  31.9524  32.2108  32.4720  32.7362  33.0033
 CONDUCTIVITY     30.6763  31.0901  31.5092  31.9337  32.3635  32.7987  33.2392  33.6852
 PRANDTL NUMBER    0.5162   0.5150   0.5137   0.5125   0.5113   0.5102   0.5090   0.5079

  WITH FROZEN REACTIONS

 Cp, KJ/(KG)(K)   18.7871  18.7981  18.8092  18.8201  18.8311  18.8421  18.8530  18.8640
 CONDUCTIVITY     13.6250  13.6752  13.7256  13.7762  13.8270  13.8780  13.9292  13.9806
 PRANDTL NUMBER    0.7000   0.6999   0.6998   0.6998   0.6997   0.6996   0.6995   0.6995

 MOLE FRACTIONS

 *H               0.04251  0.04356  0.04463  0.04571  0.04682  0.04795  0.04909  0.05026
 *H2              0.95749  0.95644  0.95537  0.95429  0.95318  0.95205  0.95091  0.94974

  * THERMODYNAMIC PROPERTIES FITTED TO 20000.K

 NOTE. WEIGHT FRACTION OF FUEL IN TOTAL FUELS AND OF OXIDANT IN TOTAL OXIDANTS









               THERMODYNAMIC EQUILIBRIUM PROPERTIES AT ASSIGNED

                           TEMPERATURE AND PRESSURE

 CASE =                

             REACTANT                    WT FRACTION      ENERGY      TEMP
                                          (SEE NOTE)     KJ/KG-MOL      K  
             H2                           1.0000000         0.000      0.000

 O/F=    0.00000  %FUEL=100.000000  R,EQ.RATIO= 0.000000  PHI,EQ.RATIO= 0.000000

 THERMODYNAMIC PROPERTIES

 P, BAR            82.500   82.500   82.500   82.500   91.000   91.000   91.000   91.000
 T, K             3410.00  3420.00  3430.00  3440.00  3300.00  3310.00  3320.00  3330.00
 RHO, KG/CU M    5.7149-1 5.6947-1 5.6745-1 5.6544-1 6.5601-1 6.5371-1 6.5142-1 6.4914-1
 H, KJ/KG         57688.0  58022.1  58359.0  58698.6  53965.6  54265.8  54568.2  54873.0
 U, KJ/KG         43252.2  43535.0  43820.3  44108.2  40093.8  40345.2  40598.7  40854.4
 G, KJ/KG       -238358.8-239227.5-240097.1-240967.7-227506.0-228359.3-229213.6-230068.9
 S, KJ/(KG)(K)    86.8173  86.9151  87.0134  87.1123  85.2944  85.3852  85.4765  85.5681

 M, (1/n)           1.964    1.963    1.962    1.960    1.978    1.977    1.976    1.975
 (dLV/dLP)t      -1.01285 -1.01315 -1.01346 -1.01377 -1.00940 -1.00964 -1.00988 -1.01013
 (dLV/dLT)p        1.2091   1.2133   1.2177   1.2221   1.1579   1.1614   1.1650   1.1686
 Cp, KJ/(KG)(K)   33.2733  33.5462  33.8221  34.1009  29.9013  30.1314  30.3642  30.5998
 GAMMAs            1.2094   1.2088   1.2083   1.2077   1.2182   1.2175   1.2168   1.2162
 SON VEL,M/SEC     4178.4   4184.8   4191.2   4197.7   4110.7   4116.8   4122.9   4129.0

 TRANSPORT PROPERTIES (GASES ONLY)
   CONDUCTIVITY IN UNITS OF MILLIWATTS/(CM)(K)

 VISC,MILLIPOISE  0.51994  0.52151  0.52308  0.52465  0.50264  0.50412  0.50561  0.50711

  WITH EQUILIBRIUM REACTIONS

 Cp, KJ/(KG)(K)   33.2733  33.5462  33.8221  34.1009  29.9013  30.1314  30.3642  30.5998
 CONDUCTIVITY     34.1365  34.5933  35.0555  35.5231  28.6985  29.0801  29.4667  29.8585
 PRANDTL NUMBER    0.5068   0.5057   0.5047   0.5036   0.5237   0.5223   0.5210   0.5197

  WITH FROZEN REACTIONS

 Cp, KJ/(KG)(K)   18.8749  18.8858  18.8967  18.9076  18.7521  18.7631  18.7742  18.7852
 CONDUCTIVITY     14.0322  14.0840  14.1361  14.1883  13.4575  13.5066  13.5560  13.6055
 PRANDTL NUMBER    0.6994   0.6993   0.6992   0.6992   0.7004   0.7003   0.7002   0.7002

 MOLE FRACTIONS

 *H               0.05144  0.05264  0.05387  0.05511  0.03762  0.03857  0.03954  0.04052
 *H2              0.94856  0.94736  0.94613  0.94489  0.96238  0.96143  0.96046  0.95948

  * THERMODYNAMIC PROPERTIES FITTED TO 20000.K

 NOTE. WEIGHT FRACTION OF FUEL IN TOTAL FUELS AND OF OXIDANT IN TOTAL OXIDANTS









               THERMODYNAMIC EQUILIBRIUM PROPERTIES AT ASSIGNED

                           TEMPERATURE AND PRESSURE

 CASE =                

             REACTANT                    WT FRACTION      ENERGY      TEMP
                                          (SEE NOTE)     KJ/KG-MOL      K  
             H2                           1.0000000         0.000      0.000

 O/F=    0.00000  %FUEL=100.000000  R,EQ.RATIO= 0.000000  PHI,EQ.RATIO= 0.000000

 THERMODYNAMIC PROPERTIES

 P, BAR            91.000   91.000   91.000   91.000   91.000   91.000   91.000   91.000
 T, K             3340.00  3350.00  3360.00  3370.00  3380.00  3390.00  3400.00  3410.00
 RHO, KG/CU M    6.4686-1 6.4460-1 6.4234-1 6.4009-1 6.3784-1 6.3560-1 6.3337-1 6.3115-1
 H, KJ/KG         55180.2  55489.8  55801.8  56116.3  56433.2  56752.7  57074.7  57399.2
 U, KJ/KG         41112.3  41372.5  41634.8  41899.4  42166.4  42435.6  42707.2  42981.1
 G, KJ/KG       -230925.0-231782.1-232640.1-233499.0-234358.8-235219.6-236081.4-236944.1
 S, KJ/(KG)(K)    85.6602  85.7528  85.8458  85.9392  86.0332  86.1275  86.2224  86.3177

 M, (1/n)           1.974    1.973    1.972    1.971    1.970    1.969    1.968    1.966
 (dLV/dLP)t      -1.01038 -1.01063 -1.01089 -1.01115 -1.01142 -1.01169 -1.01197 -1.01225
 (dLV/dLT)p        1.1722   1.1759   1.1797   1.1835   1.1874   1.1913   1.1953   1.1993
 Cp, KJ/(KG)(K)   30.8381  31.0791  31.3229  31.5695  31.8188  32.0709  32.3258  32.5835
 GAMMAs            1.2155   1.2149   1.2143   1.2136   1.2130   1.2124   1.2118   1.2112
 SON VEL,M/SEC     4135.2   4141.4   4147.6   4153.8   4160.0   4166.3   4172.6   4179.0

 TRANSPORT PROPERTIES (GASES ONLY)
   CONDUCTIVITY IN UNITS OF MILLIWATTS/(CM)(K)

 VISC,MILLIPOISE  0.50861  0.51012  0.51163  0.51315  0.51467  0.51620  0.51774  0.51928

  WITH EQUILIBRIUM REACTIONS

 Cp, KJ/(KG)(K)   30.8381  31.0791  31.3229  31.5695  31.8188  32.0709  32.3258  32.5835
 CONDUCTIVITY     30.2553  30.6572  31.0642  31.4764  31.8937  32.3162  32.7439  33.1767
 PRANDTL NUMBER    0.5184   0.5171   0.5159   0.5147   0.5135   0.5123   0.5111   0.5100

  WITH FROZEN REACTIONS

 Cp, KJ/(KG)(K)   18.7962  18.8071  18.8181  18.8290  18.8399  18.8509  18.8618  18.8726
 CONDUCTIVITY     13.6552  13.7052  13.7553  13.8056  13.8561  13.9069  13.9578  14.0089
 PRANDTL NUMBER    0.7001   0.7000   0.6999   0.6999   0.6998   0.6997   0.6996   0.6996

 MOLE FRACTIONS

 *H               0.04152  0.04254  0.04358  0.04463  0.04570  0.04680  0.04791  0.04904
 *H2              0.95848  0.95746  0.95642  0.95537  0.95430  0.95320  0.95209  0.95096

  * THERMODYNAMIC PROPERTIES FITTED TO 20000.K

 NOTE. WEIGHT FRACTION OF FUEL IN TOTAL FUELS AND OF OXIDANT IN TOTAL OXIDANTS









               THERMODYNAMIC EQUILIBRIUM PROPERTIES AT ASSIGNED

                           TEMPERATURE AND PRESSURE

 CASE =                

             REACTANT                    WT FRACTION      ENERGY      TEMP
                                          (SEE NOTE)     KJ/KG-MOL      K  
             H2                           1.0000000         0.000      0.000

 O/F=    0.00000  %FUEL=100.000000  R,EQ.RATIO= 0.000000  PHI,EQ.RATIO= 0.000000

 THERMODYNAMIC PROPERTIES

 P, BAR            91.000   91.000   91.000   100.00   100.00   100.00   100.00   100.00
 T, K             3420.00  3430.00  3440.00  3300.00  3310.00  3320.00  3330.00  3340.00
 RHO, KG/CU M    6.2893-1 6.2672-1 6.2452-1 7.2151-1 7.1900-1 7.1650-1 7.1400-1 7.1152-1
 H, KJ/KG         57726.3  58056.1  58388.5  53763.8  54058.8  54355.9  54655.3  54957.0
 U, KJ/KG         43257.4  43536.2  43817.3  39904.0  40150.5  40399.1  40649.8  40902.6
 G, KJ/KG       -237807.7-238672.4-239537.9-226198.3-227047.1-227896.8-228747.4-229598.9
 S, KJ/(KG)(K)    86.4135  86.5098  86.6065  84.8370  84.9262  85.0159  85.1059  85.1964

 M, (1/n)           1.965    1.964    1.963    1.980    1.979    1.978    1.977    1.976
 (dLV/dLP)t      -1.01254 -1.01283 -1.01313 -1.00898 -1.00920 -1.00943 -1.00967 -1.00991
 (dLV/dLT)p        1.2034   1.2076   1.2118   1.1508   1.1541   1.1575   1.1610   1.1645
 Cp, KJ/(KG)(K)   32.8439  33.1071  33.3731  29.3866  29.6066  29.8292  30.0544  30.2823
 GAMMAs            1.2107   1.2101   1.2095   1.2199   1.2193   1.2186   1.2180   1.2173
 SON VEL,M/SEC     4185.3   4191.7   4198.1   4112.0   4118.0   4124.1   4130.1   4136.2

 TRANSPORT PROPERTIES (GASES ONLY)
   CONDUCTIVITY IN UNITS OF MILLIWATTS/(CM)(K)

 VISC,MILLIPOISE  0.52083  0.52239  0.52395  0.50217  0.50364  0.50512  0.50660  0.50809

  WITH EQUILIBRIUM REACTIONS

 Cp, KJ/(KG)(K)   32.8439  33.1071  33.3731  29.3866  29.6066  29.8292  30.0544  30.2823
 CONDUCTIVITY     33.6148  34.0581  34.5066  27.9930  28.3595  28.7309  29.1072  29.4883
 PRANDTL NUMBER    0.5089   0.5078   0.5067   0.5272   0.5258   0.5244   0.5231   0.5218

  WITH FROZEN REACTIONS

 Cp, KJ/(KG)(K)   18.8835  18.8943  18.9052  18.7504  18.7614  18.7724  18.7834  18.7943
 CONDUCTIVITY     14.0603  14.1118  14.1635  13.4407  13.4894  13.5383  13.5875  13.6368
 PRANDTL NUMBER    0.6995   0.6994   0.6994   0.7005   0.7005   0.7004   0.7003   0.7003

 MOLE FRACTIONS

 *H               0.05019  0.05136  0.05255  0.03592  0.03683  0.03775  0.03869  0.03965
 *H2              0.94981  0.94864  0.94745  0.96408  0.96317  0.96225  0.96131  0.96035

  * THERMODYNAMIC PROPERTIES FITTED TO 20000.K

 NOTE. WEIGHT FRACTION OF FUEL IN TOTAL FUELS AND OF OXIDANT IN TOTAL OXIDANTS









               THERMODYNAMIC EQUILIBRIUM PROPERTIES AT ASSIGNED

                           TEMPERATURE AND PRESSURE

 CASE =                

             REACTANT                    WT FRACTION      ENERGY      TEMP
                                          (SEE NOTE)     KJ/KG-MOL      K  
             H2                           1.0000000         0.000      0.000

 O/F=    0.00000  %FUEL=100.000000  R,EQ.RATIO= 0.000000  PHI,EQ.RATIO= 0.000000

 THERMODYNAMIC PROPERTIES

 P, BAR            100.00   100.00   100.00   100.00   100.00   100.00   100.00   100.00
 T, K             3350.00  3360.00  3370.00  3380.00  3390.00  3400.00  3410.00  3420.00
 RHO, KG/CU M    7.0904-1 7.0657-1 7.0411-1 7.0166-1 6.9922-1 6.9678-1 6.9436-1 6.9194-1
 H, KJ/KG         55261.0  55567.3  55875.9  56186.9  56500.3  56816.2  57134.4  57455.2
 U, KJ/KG         41157.5  41414.5  41673.7  41935.1  42198.7  42464.5  42732.6  43003.0
 G, KJ/KG       -230451.3-231304.6-232158.9-233014.0-233870.1-234727.1-235585.1-236444.0
 S, KJ/(KG)(K)    85.2873  85.3785  85.4703  85.5624  85.6550  85.7480  85.8415  85.9354

 M, (1/n)           1.975    1.974    1.973    1.972    1.971    1.970    1.969    1.968
 (dLV/dLP)t      -1.01015 -1.01040 -1.01065 -1.01091 -1.01117 -1.01143 -1.01170 -1.01198
 (dLV/dLT)p        1.1680   1.1716   1.1753   1.1790   1.1827   1.1865   1.1904   1.1943
 Cp, KJ/(KG)(K)   30.5127  30.7458  30.9816  31.2200  31.4610  31.7046  31.9510  32.1999
 GAMMAs            1.2167   1.2160   1.2154   1.2148   1.2142   1.2136   1.2130   1.2124
 SON VEL,M/SEC     4142.4   4148.5   4154.7   4160.9   4167.1   4173.4   4179.7   4186.0

 TRANSPORT PROPERTIES (GASES ONLY)
   CONDUCTIVITY IN UNITS OF MILLIWATTS/(CM)(K)

 VISC,MILLIPOISE  0.50959  0.51109  0.51259  0.51410  0.51562  0.51714  0.51867  0.52021

  WITH EQUILIBRIUM REACTIONS

 Cp, KJ/(KG)(K)   30.5127  30.7458  30.9816  31.2200  31.4610  31.7046  31.9510  32.1999
 CONDUCTIVITY     29.8743  30.2653  30.6612  31.0621  31.4679  31.8787  32.2945  32.7153
 PRANDTL NUMBER    0.5205   0.5192   0.5179   0.5167   0.5155   0.5143   0.5132   0.5120

  WITH FROZEN REACTIONS

 Cp, KJ/(KG)(K)   18.8053  18.8162  18.8271  18.8380  18.8489  18.8597  18.8706  18.8814
 CONDUCTIVITY     13.6863  13.7359  13.7858  13.8359  13.8862  13.9367  13.9873  14.0382
 PRANDTL NUMBER    0.7002   0.7001   0.7000   0.7000   0.6999   0.6998   0.6997   0.6997

 MOLE FRACTIONS

 *H               0.04062  0.04161  0.04262  0.04365  0.04469  0.04575  0.04684  0.04794
 *H2              0.95938  0.95839  0.95738  0.95635  0.95531  0.95425  0.95316  0.95206

  * THERMODYNAMIC PROPERTIES FITTED TO 20000.K

 NOTE. WEIGHT FRACTION OF FUEL IN TOTAL FUELS AND OF OXIDANT IN TOTAL OXIDANTS









               THERMODYNAMIC EQUILIBRIUM PROPERTIES AT ASSIGNED

                           TEMPERATURE AND PRESSURE

 CASE =                

             REACTANT                    WT FRACTION      ENERGY      TEMP
                                          (SEE NOTE)     KJ/KG-MOL      K  
             H2                           1.0000000         0.000      0.000

 O/F=    0.00000  %FUEL=100.000000  R,EQ.RATIO= 0.000000  PHI,EQ.RATIO= 0.000000

 THERMODYNAMIC PROPERTIES

 P, BAR            100.00   100.00   110.00   110.00   110.00   110.00   110.00   110.00
 T, K             3430.00  3440.00  3300.00  3310.00  3320.00  3330.00  3340.00  3350.00
 RHO, KG/CU M    6.8952-1 6.8712-1 7.9433-1 7.9158-1 7.8884-1 7.8611-1 7.8339-1 7.8068-1
 H, KJ/KG         57778.4  58104.2  53569.3  53859.2  54151.3  54445.5  54741.9  55040.5
 U, KJ/KG         43275.7  43550.7  39721.1  39962.9  40206.8  40452.6  40700.4  40950.2
 G, KJ/KG       -237303.8-238164.6-224877.9-225722.0-226567.1-227413.1-228260.0-229107.7
 S, KJ/(KG)(K)    86.0298  86.1247  84.3779  84.4656  84.5537  84.6422  84.7311  84.8204

 M, (1/n)           1.966    1.965    1.981    1.980    1.980    1.979    1.978    1.977
 (dLV/dLP)t      -1.01226 -1.01254 -1.00857 -1.00878 -1.00900 -1.00923 -1.00946 -1.00969
 (dLV/dLT)p        1.1982   1.2023   1.1439   1.1471   1.1503   1.1536   1.1570   1.1604
 Cp, KJ/(KG)(K)   32.4516  32.7059  28.8904  29.1007  29.3135  29.5288  29.7465  29.9668
 GAMMAs            1.2119   1.2113   1.2217   1.2211   1.2204   1.2197   1.2191   1.2185
 SON VEL,M/SEC     4192.3   4198.6   4113.3   4119.3   4125.3   4131.3   4137.4   4143.5

 TRANSPORT PROPERTIES (GASES ONLY)
   CONDUCTIVITY IN UNITS OF MILLIWATTS/(CM)(K)

 VISC,MILLIPOISE  0.52175  0.52330  0.50171  0.50318  0.50464  0.50611  0.50759  0.50907

  WITH EQUILIBRIUM REACTIONS

 Cp, KJ/(KG)(K)   32.4516  32.7059  28.8904  29.1007  29.3135  29.5288  29.7465  29.9668
 CONDUCTIVITY     33.1411  33.5720  27.3117  27.6636  28.0202  28.3815  28.7475  29.1181
 PRANDTL NUMBER    0.5109   0.5098   0.5307   0.5293   0.5279   0.5266   0.5252   0.5239

  WITH FROZEN REACTIONS

 Cp, KJ/(KG)(K)   18.8922  18.9030  18.7488  18.7598  18.7707  18.7817  18.7926  18.8035
 CONDUCTIVITY     14.0893  14.1406  13.4244  13.4727  13.5212  13.5699  13.6188  13.6679
 PRANDTL NUMBER    0.6996   0.6995   0.7007   0.7006   0.7006   0.7005   0.7004   0.7004

 MOLE FRACTIONS

 *H               0.04905  0.05019  0.03428  0.03514  0.03602  0.03692  0.03784  0.03877
 *H2              0.95095  0.94981  0.96572  0.96486  0.96398  0.96308  0.96216  0.96123

  * THERMODYNAMIC PROPERTIES FITTED TO 20000.K

 NOTE. WEIGHT FRACTION OF FUEL IN TOTAL FUELS AND OF OXIDANT IN TOTAL OXIDANTS









               THERMODYNAMIC EQUILIBRIUM PROPERTIES AT ASSIGNED

                           TEMPERATURE AND PRESSURE

 CASE =                

             REACTANT                    WT FRACTION      ENERGY      TEMP
                                          (SEE NOTE)     KJ/KG-MOL      K  
             H2                           1.0000000         0.000      0.000

 O/F=    0.00000  %FUEL=100.000000  R,EQ.RATIO= 0.000000  PHI,EQ.RATIO= 0.000000

 THERMODYNAMIC PROPERTIES

 P, BAR            110.00   110.00   110.00   110.00   110.00   110.00   110.00   110.00
 T, K             3360.00  3370.00  3380.00  3390.00  3400.00  3410.00  3420.00  3430.00
 RHO, KG/CU M    7.7798-1 7.7529-1 7.7261-1 7.6994-1 7.6728-1 7.6462-1 7.6198-1 7.5934-1
 H, KJ/KG         55341.2  55644.2  55949.5  56257.1  56567.0  56879.2  57193.8  57510.8
 U, KJ/KG         41202.1  41456.1  41712.1  41970.3  42230.6  42493.1  42757.7  43024.6
 G, KJ/KG       -229956.4-230805.9-231656.4-232507.7-233360.0-234213.2-235067.3-235922.3
 S, KJ/(KG)(K)    84.9100  85.0001  85.0905  85.1814  85.2727  85.3644  85.4565  85.5490

 M, (1/n)           1.976    1.975    1.974    1.973    1.972    1.971    1.970    1.969
 (dLV/dLP)t      -1.00992 -1.01017 -1.01041 -1.01066 -1.01091 -1.01117 -1.01143 -1.01170
 (dLV/dLT)p        1.1638   1.1673   1.1708   1.1744   1.1780   1.1817   1.1855   1.1893
 Cp, KJ/(KG)(K)   30.1895  30.4148  30.6426  30.8730  31.1058  31.3412  31.5791  31.8196
 GAMMAs            1.2178   1.2172   1.2166   1.2160   1.2154   1.2148   1.2142   1.2136
 SON VEL,M/SEC     4149.6   4155.7   4161.8   4168.0   4174.2   4180.4   4186.7   4193.0

 TRANSPORT PROPERTIES (GASES ONLY)
   CONDUCTIVITY IN UNITS OF MILLIWATTS/(CM)(K)

 VISC,MILLIPOISE  0.51056  0.51205  0.51355  0.51506  0.51656  0.51808  0.51960  0.52113

  WITH EQUILIBRIUM REACTIONS

 Cp, KJ/(KG)(K)   30.1895  30.4148  30.6426  30.8730  31.1058  31.3412  31.5791  31.8196
 CONDUCTIVITY     29.4935  29.8737  30.2586  30.6482  31.0427  31.4419  31.8460  32.2549
 PRANDTL NUMBER    0.5226   0.5213   0.5201   0.5188   0.5176   0.5164   0.5152   0.5141

  WITH FROZEN REACTIONS

 Cp, KJ/(KG)(K)   18.8144  18.8252  18.8361  18.8469  18.8577  18.8686  18.8793  18.8901
 CONDUCTIVITY     13.7172  13.7666  13.8163  13.8661  13.9161  13.9664  14.0168  14.0674
 PRANDTL NUMBER    0.7003   0.7002   0.7001   0.7001   0.7000   0.6999   0.6999   0.6998

 MOLE FRACTIONS

 *H               0.03971  0.04068  0.04166  0.04266  0.04367  0.04471  0.04576  0.04683
 *H2              0.96029  0.95932  0.95834  0.95734  0.95633  0.95529  0.95424  0.95317

  * THERMODYNAMIC PROPERTIES FITTED TO 20000.K

 NOTE. WEIGHT FRACTION OF FUEL IN TOTAL FUELS AND OF OXIDANT IN TOTAL OXIDANTS









               THERMODYNAMIC EQUILIBRIUM PROPERTIES AT ASSIGNED

                           TEMPERATURE AND PRESSURE

 CASE =                

             REACTANT                    WT FRACTION      ENERGY      TEMP
                                          (SEE NOTE)     KJ/KG-MOL      K  
             H2                           1.0000000         0.000      0.000

 O/F=    0.00000  %FUEL=100.000000  R,EQ.RATIO= 0.000000  PHI,EQ.RATIO= 0.000000

 THERMODYNAMIC PROPERTIES

 P, BAR            110.00   120.00   120.00   120.00   120.00   120.00   120.00   120.00
 T, K             3440.00  3300.00  3310.00  3320.00  3330.00  3340.00  3350.00  3360.00
 RHO, KG/CU M    7.5671-1 8.6717-1 8.6419-1 8.6121-1 8.5825-1 8.5530-1 8.5236-1 8.4943-1
 H, KJ/KG         57830.2  53399.6  53685.2  53972.8  54262.5  54554.2  54848.1  55144.0
 U, KJ/KG         43293.7  39561.5  39799.3  40039.0  40280.5  40524.0  40769.5  41016.9
 G, KJ/KG       -236778.3-223673.4-224513.4-225354.3-226196.0-227038.7-227882.2-228726.6
 S, KJ/(KG)(K)    85.6420  83.9615  84.0479  84.1347  84.2218  84.3093  84.3971  84.4853

 M, (1/n)           1.968    1.983    1.982    1.981    1.980    1.979    1.978    1.978
 (dLV/dLP)t      -1.01197 -1.00821 -1.00842 -1.00863 -1.00884 -1.00906 -1.00928 -1.00951
 (dLV/dLT)p        1.1931   1.1379   1.1409   1.1440   1.1472   1.1504   1.1537   1.1570
 Cp, KJ/(KG)(K)   32.0626  28.4576  28.6594  28.8636  29.0702  29.2791  29.4905  29.7042
 GAMMAs            1.2131   1.2234   1.2227   1.2220   1.2214   1.2207   1.2201   1.2194
 SON VEL,M/SEC     4199.2   4114.5   4120.5   4126.4   4132.4   4138.5   4144.5   4150.6

 TRANSPORT PROPERTIES (GASES ONLY)
   CONDUCTIVITY IN UNITS OF MILLIWATTS/(CM)(K)

 VISC,MILLIPOISE  0.52266  0.50132  0.50277  0.50422  0.50568  0.50715  0.50862  0.51010

  WITH EQUILIBRIUM REACTIONS

 Cp, KJ/(KG)(K)   32.0626  28.4576  28.6594  28.8636  29.0702  29.2791  29.4905  29.7042
 CONDUCTIVITY     32.6687  26.7163  27.0555  27.3991  27.7473  28.1000  28.4572  28.8189
 PRANDTL NUMBER    0.5130   0.5340   0.5326   0.5312   0.5298   0.5284   0.5271   0.5258

  WITH FROZEN REACTIONS

 Cp, KJ/(KG)(K)   18.9009  18.7474  18.7583  18.7693  18.7802  18.7911  18.8019  18.8128
 CONDUCTIVITY     14.1182  13.4101  13.4580  13.5062  13.5545  13.6030  13.6518  13.7006
 PRANDTL NUMBER    0.6997   0.7008   0.7008   0.7007   0.7006   0.7006   0.7005   0.7004

 MOLE FRACTIONS

 *H               0.04791  0.03284  0.03367  0.03452  0.03538  0.03626  0.03715  0.03806
 *H2              0.95209  0.96716  0.96633  0.96548  0.96462  0.96374  0.96285  0.96194

  * THERMODYNAMIC PROPERTIES FITTED TO 20000.K

 NOTE. WEIGHT FRACTION OF FUEL IN TOTAL FUELS AND OF OXIDANT IN TOTAL OXIDANTS









               THERMODYNAMIC EQUILIBRIUM PROPERTIES AT ASSIGNED

                           TEMPERATURE AND PRESSURE

 CASE =                

             REACTANT                    WT FRACTION      ENERGY      TEMP
                                          (SEE NOTE)     KJ/KG-MOL      K  
             H2                           1.0000000         0.000      0.000

 O/F=    0.00000  %FUEL=100.000000  R,EQ.RATIO= 0.000000  PHI,EQ.RATIO= 0.000000

 THERMODYNAMIC PROPERTIES

 P, BAR            120.00   120.00   120.00   120.00   120.00   120.00   120.00   120.00
 T, K             3370.00  3380.00  3390.00  3400.00  3410.00  3420.00  3430.00  3440.00
 RHO, KG/CU M    8.4651-1 8.4360-1 8.4070-1 8.3781-1 8.3493-1 8.3206-1 8.2920-1 8.2635-1
 H, KJ/KG         55442.2  55742.5  56044.9  56349.7  56656.6  56965.9  57277.4  57591.2
 U, KJ/KG         41266.3  41517.7  41771.1  42026.6  42284.2  42543.8  42805.6  43069.5
 G, KJ/KG       -229571.9-230418.1-231265.2-232113.2-232962.0-233811.8-234662.5-235514.1
 S, KJ/(KG)(K)    84.5739  84.6629  84.7523  84.8420  84.9322  85.0227  85.1137  85.2050

 M, (1/n)           1.977    1.976    1.975    1.974    1.973    1.972    1.971    1.970
 (dLV/dLP)t      -1.00974 -1.00998 -1.01022 -1.01046 -1.01071 -1.01096 -1.01121 -1.01147
 (dLV/dLT)p        1.1603   1.1637   1.1671   1.1706   1.1742   1.1778   1.1814   1.1851
 Cp, KJ/(KG)(K)   29.9204  30.1390  30.3600  30.5834  30.8092  31.0375  31.2682  31.5014
 GAMMAs            1.2188   1.2182   1.2176   1.2170   1.2164   1.2158   1.2152   1.2147
 SON VEL,M/SEC     4156.7   4162.8   4168.9   4175.1   4181.2   4187.4   4193.6   4199.9

 TRANSPORT PROPERTIES (GASES ONLY)
   CONDUCTIVITY IN UNITS OF MILLIWATTS/(CM)(K)

 VISC,MILLIPOISE  0.51158  0.51307  0.51456  0.51606  0.51756  0.51907  0.52058  0.52210

  WITH EQUILIBRIUM REACTIONS

 Cp, KJ/(KG)(K)   29.9204  30.1390  30.3600  30.5834  30.8092  31.0375  31.2682  31.5014
 CONDUCTIVITY     29.1852  29.5561  29.9316  30.3118  30.6965  31.0859  31.4800  31.8787
 PRANDTL NUMBER    0.5245   0.5232   0.5219   0.5207   0.5195   0.5183   0.5171   0.5159

  WITH FROZEN REACTIONS

 Cp, KJ/(KG)(K)   18.8236  18.8344  18.8452  18.8560  18.8668  18.8776  18.8883  18.8990
 CONDUCTIVITY     13.7497  13.7990  13.8484  13.8981  13.9479  13.9979  14.0481  14.0985
 PRANDTL NUMBER    0.7004   0.7003   0.7002   0.7002   0.7001   0.7000   0.6999   0.6999

 MOLE FRACTIONS

 *H               0.03898  0.03992  0.04088  0.04185  0.04284  0.04385  0.04488  0.04592
 *H2              0.96102  0.96008  0.95912  0.95815  0.95716  0.95615  0.95512  0.95408

  * THERMODYNAMIC PROPERTIES FITTED TO 20000.K

 NOTE. WEIGHT FRACTION OF FUEL IN TOTAL FUELS AND OF OXIDANT IN TOTAL OXIDANTS









               THERMODYNAMIC EQUILIBRIUM PROPERTIES AT ASSIGNED

                           TEMPERATURE AND PRESSURE

 CASE =                

             REACTANT                    WT FRACTION      ENERGY      TEMP
                                          (SEE NOTE)     KJ/KG-MOL      K  
             H2                           1.0000000         0.000      0.000

 O/F=    0.00000  %FUEL=100.000000  R,EQ.RATIO= 0.000000  PHI,EQ.RATIO= 0.000000

 THERMODYNAMIC PROPERTIES

 P, BAR            132.00   132.00   132.00   132.00   132.00   132.00   132.00   132.00
 T, K             3300.00  3310.00  3320.00  3330.00  3340.00  3350.00  3360.00  3370.00
 RHO, KG/CU M    9.5462-1 9.5135-1 9.4809-1 9.4485-1 9.4162-1 9.3840-1 9.3520-1 9.3200-1
 H, KJ/KG         53222.0  53503.0  53786.0  54070.9  54357.8  54646.7  54937.7  55230.6
 U, KJ/KG         39394.5  39628.0  39863.3  40100.5  40339.5  40580.3  40823.0  41067.6
 G, KJ/KG       -222355.0-223190.4-224026.8-224864.0-225702.1-226541.0-227380.8-228221.5
 S, KJ/(KG)(K)    83.5082  83.5932  83.6785  83.7642  83.8503  83.9366  84.0233  84.1104

 M, (1/n)           1.984    1.983    1.983    1.982    1.981    1.980    1.979    1.978
 (dLV/dLP)t      -1.00783 -1.00803 -1.00823 -1.00844 -1.00865 -1.00886 -1.00908 -1.00930
 (dLV/dLT)p        1.1316   1.1345   1.1375   1.1405   1.1435   1.1466   1.1498   1.1530
 Cp, KJ/(KG)(K)   28.0046  28.1975  28.3927  28.5902  28.7899  28.9919  29.1962  29.4029
 GAMMAs            1.2251   1.2244   1.2238   1.2231   1.2225   1.2218   1.2212   1.2206
 SON VEL,M/SEC     4115.9   4121.8   4127.7   4133.7   4139.7   4145.7   4151.7   4157.8

 TRANSPORT PROPERTIES (GASES ONLY)
   CONDUCTIVITY IN UNITS OF MILLIWATTS/(CM)(K)

 VISC,MILLIPOISE  0.50090  0.50234  0.50378  0.50523  0.50669  0.50815  0.50961  0.51108

  WITH EQUILIBRIUM REACTIONS

 Cp, KJ/(KG)(K)   28.0046  28.1975  28.3927  28.5902  28.7899  28.9919  29.1962  29.4029
 CONDUCTIVITY     26.0922  26.4179  26.7480  27.0823  27.4210  27.7641  28.1115  28.4632
 PRANDTL NUMBER    0.5376   0.5362   0.5348   0.5334   0.5320   0.5306   0.5293   0.5280

  WITH FROZEN REACTIONS

 Cp, KJ/(KG)(K)   18.7459  18.7568  18.7677  18.7786  18.7894  18.8003  18.8111  18.8219
 CONDUCTIVITY     13.3950  13.4426  13.4903  13.5383  13.5864  13.6347  13.6832  13.7319
 PRANDTL NUMBER    0.7010   0.7009   0.7009   0.7008   0.7007   0.7007   0.7006   0.7005

 MOLE FRACTIONS

 *H               0.03134  0.03213  0.03294  0.03376  0.03460  0.03545  0.03632  0.03720
 *H2              0.96866  0.96787  0.96706  0.96624  0.96540  0.96455  0.96368  0.96280

  * THERMODYNAMIC PROPERTIES FITTED TO 20000.K

 NOTE. WEIGHT FRACTION OF FUEL IN TOTAL FUELS AND OF OXIDANT IN TOTAL OXIDANTS









               THERMODYNAMIC EQUILIBRIUM PROPERTIES AT ASSIGNED

                           TEMPERATURE AND PRESSURE

 CASE =                

             REACTANT                    WT FRACTION      ENERGY      TEMP
                                          (SEE NOTE)     KJ/KG-MOL      K  
             H2                           1.0000000         0.000      0.000

 O/F=    0.00000  %FUEL=100.000000  R,EQ.RATIO= 0.000000  PHI,EQ.RATIO= 0.000000

 THERMODYNAMIC PROPERTIES

 P, BAR            132.00   132.00   132.00   132.00   132.00   132.00   132.00   148.00
 T, K             3380.00  3390.00  3400.00  3410.00  3420.00  3430.00  3440.00  3300.00
 RHO, KG/CU M    9.2882-1 9.2565-1 9.2249-1 9.1934-1 9.1620-1 9.1307-1 9.0995-1 1.0713 0
 H, KJ/KG         55525.7  55822.9  56122.2  56423.6  56727.2  57033.0  57341.1  53019.8
 U, KJ/KG         41314.2  41562.6  41813.1  42065.5  42319.9  42576.4  42834.9  39204.3
 G, KJ/KG       -229063.0-229905.4-230748.7-231592.9-232438.0-233283.9-234130.8-220773.6
 S, KJ/(KG)(K)    84.1978  84.2856  84.3738  84.4623  84.5512  84.6405  84.7302  82.9677

 M, (1/n)           1.977    1.977    1.976    1.975    1.974    1.973    1.972    1.986
 (dLV/dLP)t      -1.00952 -1.00975 -1.00998 -1.01022 -1.01046 -1.01070 -1.01095 -1.00740
 (dLV/dLT)p        1.1562   1.1595   1.1629   1.1662   1.1697   1.1731   1.1767   1.1244
 Cp, KJ/(KG)(K)   29.6118  29.8230  30.0365  30.2524  30.4706  30.6911  30.9139  27.4885
 GAMMAs            1.2200   1.2194   1.2187   1.2182   1.2176   1.2170   1.2164   1.2272
 SON VEL,M/SEC     4163.8   4169.9   4176.0   4182.2   4188.3   4194.5   4200.7   4117.6

 TRANSPORT PROPERTIES (GASES ONLY)
   CONDUCTIVITY IN UNITS OF MILLIWATTS/(CM)(K)

 VISC,MILLIPOISE  0.51256  0.51404  0.51552  0.51701  0.51851  0.52001  0.52152  0.50042

  WITH EQUILIBRIUM REACTIONS

 Cp, KJ/(KG)(K)   29.6118  29.8230  30.0365  30.2524  30.4706  30.6911  30.9139  27.4885
 CONDUCTIVITY     28.8194  29.1800  29.5451  29.9146  30.2885  30.6669  31.0499  25.3799
 PRANDTL NUMBER    0.5266   0.5254   0.5241   0.5229   0.5216   0.5204   0.5192   0.5420

  WITH FROZEN REACTIONS

 Cp, KJ/(KG)(K)   18.8327  18.8435  18.8542  18.8650  18.8757  18.8864  18.8971  18.7442
 CONDUCTIVITY     13.7808  13.8298  13.8790  13.9284  13.9780  14.0278  14.0777  13.3777
 PRANDTL NUMBER    0.7005   0.7004   0.7003   0.7003   0.7002   0.7001   0.7001   0.7012

 MOLE FRACTIONS

 *H               0.03810  0.03901  0.03995  0.04089  0.04186  0.04284  0.04383  0.02962
 *H2              0.96190  0.96099  0.96005  0.95911  0.95814  0.95716  0.95617  0.97038

  * THERMODYNAMIC PROPERTIES FITTED TO 20000.K

 NOTE. WEIGHT FRACTION OF FUEL IN TOTAL FUELS AND OF OXIDANT IN TOTAL OXIDANTS









               THERMODYNAMIC EQUILIBRIUM PROPERTIES AT ASSIGNED

                           TEMPERATURE AND PRESSURE

 CASE =                

             REACTANT                    WT FRACTION      ENERGY      TEMP
                                          (SEE NOTE)     KJ/KG-MOL      K  
             H2                           1.0000000         0.000      0.000

 O/F=    0.00000  %FUEL=100.000000  R,EQ.RATIO= 0.000000  PHI,EQ.RATIO= 0.000000

 THERMODYNAMIC PROPERTIES

 P, BAR            148.00   148.00   148.00   148.00   148.00   148.00   148.00   148.00
 T, K             3310.00  3320.00  3330.00  3340.00  3350.00  3360.00  3370.00  3380.00
 RHO, KG/CU M    1.0676 0 1.0640 0 1.0604 0 1.0568 0 1.0532 0 1.0496 0 1.0461 0 1.0425 0
 H, KJ/KG         53295.5  53573.2  53852.7  54134.1  54417.3  54702.5  54989.7  55278.8
 U, KJ/KG         39432.9  39663.3  39895.4  40129.2  40364.8  40602.1  40841.3  41082.3
 G, KJ/KG       -221603.7-222434.6-223266.4-224099.0-224932.4-225766.7-226601.9-227437.9
 S, KJ/(KG)(K)    83.0511  83.1349  83.2189  83.3033  83.3880  83.4730  83.5583  83.6440

 M, (1/n)           1.985    1.984    1.984    1.983    1.982    1.981    1.980    1.980
 (dLV/dLP)t      -1.00759 -1.00778 -1.00798 -1.00817 -1.00838 -1.00858 -1.00879 -1.00900
 (dLV/dLT)p        1.1271   1.1299   1.1328   1.1357   1.1386   1.1416   1.1446   1.1477
 Cp, KJ/(KG)(K)   27.6713  27.8562  28.0433  28.2325  28.4239  28.6175  28.8132  29.0111
 GAMMAs            1.2265   1.2259   1.2252   1.2246   1.2239   1.2233   1.2227   1.2221
 SON VEL,M/SEC     4123.5   4129.4   4135.3   4141.2   4147.2   4153.2   4159.2   4165.2

 TRANSPORT PROPERTIES (GASES ONLY)
   CONDUCTIVITY IN UNITS OF MILLIWATTS/(CM)(K)

 VISC,MILLIPOISE  0.50185  0.50328  0.50471  0.50616  0.50760  0.50905  0.51051  0.51197

  WITH EQUILIBRIUM REACTIONS

 Cp, KJ/(KG)(K)   27.6713  27.8562  28.0433  28.2325  28.4239  28.6175  28.8132  29.0111
 CONDUCTIVITY     25.6902  26.0047  26.3233  26.6460  26.9728  27.3038  27.6389  27.9783
 PRANDTL NUMBER    0.5405   0.5391   0.5377   0.5363   0.5349   0.5335   0.5322   0.5309

  WITH FROZEN REACTIONS

 Cp, KJ/(KG)(K)   18.7551  18.7660  18.7768  18.7876  18.7984  18.8092  18.8200  18.8307
 CONDUCTIVITY     13.4248  13.4722  13.5197  13.5674  13.6152  13.6633  13.7115  13.7598
 PRANDTL NUMBER    0.7011   0.7010   0.7010   0.7009   0.7008   0.7008   0.7007   0.7006

 MOLE FRACTIONS

 *H               0.03037  0.03114  0.03191  0.03271  0.03351  0.03433  0.03517  0.03602
 *H2              0.96963  0.96886  0.96809  0.96729  0.96649  0.96567  0.96483  0.96398

  * THERMODYNAMIC PROPERTIES FITTED TO 20000.K

 NOTE. WEIGHT FRACTION OF FUEL IN TOTAL FUELS AND OF OXIDANT IN TOTAL OXIDANTS









               THERMODYNAMIC EQUILIBRIUM PROPERTIES AT ASSIGNED

                           TEMPERATURE AND PRESSURE

 CASE =                

             REACTANT                    WT FRACTION      ENERGY      TEMP
                                          (SEE NOTE)     KJ/KG-MOL      K  
             H2                           1.0000000         0.000      0.000

 O/F=    0.00000  %FUEL=100.000000  R,EQ.RATIO= 0.000000  PHI,EQ.RATIO= 0.000000

 THERMODYNAMIC PROPERTIES

 P, BAR            148.00   148.00   148.00   148.00   148.00   148.00   165.00   165.00
 T, K             3390.00  3400.00  3410.00  3420.00  3430.00  3440.00  3300.00  3310.00
 RHO, KG/CU M    1.0390 0 1.0355 0 1.0319 0 1.0285 0 1.0250 0 1.0215 0 1.1952 0 1.1912 0
 H, KJ/KG         55569.9  55863.0  56158.2  56455.4  56754.7  57056.1  52837.9  53109.0
 U, KJ/KG         41325.1  41569.8  41816.4  42064.8  42315.2  42567.5  39033.3  39257.5
 G, KJ/KG       -228274.8-229112.5-229951.1-230790.6-231630.9-232472.1-219272.0-220097.0
 S, KJ/(KG)(K)    83.7300  83.8163  83.9030  83.9901  84.0774  84.1652  82.4576  82.5396

 M, (1/n)           1.979    1.978    1.977    1.976    1.975    1.974    1.988    1.987
 (dLV/dLP)t      -1.00922 -1.00944 -1.00966 -1.00989 -1.01012 -1.01036 -1.00702 -1.00720
 (dLV/dLT)p        1.1508   1.1540   1.1572   1.1604   1.1637   1.1671   1.1179   1.1205
 Cp, KJ/(KG)(K)   29.2112  29.4135  29.6179  29.8246  30.0334  30.2445  27.0246  27.1982
 GAMMAs            1.2214   1.2208   1.2202   1.2197   1.2191   1.2185   1.2291   1.2285
 SON VEL,M/SEC     4171.2   4177.3   4183.4   4189.5   4195.6   4201.7   4119.2   4125.1

 TRANSPORT PROPERTIES (GASES ONLY)
   CONDUCTIVITY IN UNITS OF MILLIWATTS/(CM)(K)

 VISC,MILLIPOISE  0.51344  0.51491  0.51638  0.51786  0.51935  0.52084  0.49999  0.50140

  WITH EQUILIBRIUM REACTIONS

 Cp, KJ/(KG)(K)   29.2112  29.4135  29.6179  29.8246  30.0334  30.2445  27.0246  27.1982
 CONDUCTIVITY     28.3218  28.6696  29.0216  29.3778  29.7384  30.1032  24.7384  25.0349
 PRANDTL NUMBER    0.5296   0.5283   0.5270   0.5257   0.5245   0.5233   0.5462   0.5447

  WITH FROZEN REACTIONS

 Cp, KJ/(KG)(K)   18.8415  18.8522  18.8629  18.8736  18.8843  18.8949  18.7427  18.7536
 CONDUCTIVITY     13.8084  13.8571  13.9060  13.9551  14.0044  14.0538  13.3620  13.4088
 PRANDTL NUMBER    0.7006   0.7005   0.7005   0.7004   0.7003   0.7003   0.7013   0.7013

 MOLE FRACTIONS

 *H               0.03689  0.03777  0.03866  0.03958  0.04050  0.04145  0.02808  0.02879
 *H2              0.96311  0.96223  0.96134  0.96042  0.95950  0.95855  0.97192  0.97121

  * THERMODYNAMIC PROPERTIES FITTED TO 20000.K

 NOTE. WEIGHT FRACTION OF FUEL IN TOTAL FUELS AND OF OXIDANT IN TOTAL OXIDANTS









               THERMODYNAMIC EQUILIBRIUM PROPERTIES AT ASSIGNED

                           TEMPERATURE AND PRESSURE

 CASE =                

             REACTANT                    WT FRACTION      ENERGY      TEMP
                                          (SEE NOTE)     KJ/KG-MOL      K  
             H2                           1.0000000         0.000      0.000

 O/F=    0.00000  %FUEL=100.000000  R,EQ.RATIO= 0.000000  PHI,EQ.RATIO= 0.000000

 THERMODYNAMIC PROPERTIES

 P, BAR            165.00   165.00   165.00   165.00   165.00   165.00   165.00   165.00
 T, K             3320.00  3330.00  3340.00  3350.00  3360.00  3370.00  3380.00  3390.00
 RHO, KG/CU M    1.1872 0 1.1832 0 1.1792 0 1.1752 0 1.1712 0 1.1673 0 1.1634 0 1.1594 0
 H, KJ/KG         53381.9  53656.5  53932.9  54211.2  54491.2  54773.1  55056.9  55342.5
 U, KJ/KG         39483.4  39711.0  39940.2  40171.0  40403.6  40637.9  40873.9  41111.6
 G, KJ/KG       -220922.8-221749.4-222576.9-223405.1-224234.3-225064.2-225895.0-226726.7
 S, KJ/(KG)(K)    82.6219  82.7045  82.7874  82.8705  82.9540  83.0378  83.1219  83.2063

 M, (1/n)           1.986    1.985    1.985    1.984    1.983    1.982    1.981    1.981
 (dLV/dLP)t      -1.00738 -1.00756 -1.00775 -1.00794 -1.00813 -1.00833 -1.00853 -1.00874
 (dLV/dLT)p        1.1232   1.1259   1.1286   1.1314   1.1343   1.1371   1.1400   1.1430
 Cp, KJ/(KG)(K)   27.3740  27.5517  27.7315  27.9133  28.0972  28.2831  28.4712  28.6612
 GAMMAs            1.2278   1.2272   1.2265   1.2259   1.2253   1.2246   1.2240   1.2234
 SON VEL,M/SEC     4130.9   4136.8   4142.8   4148.7   4154.6   4160.6   4166.6   4172.5

 TRANSPORT PROPERTIES (GASES ONLY)
   CONDUCTIVITY IN UNITS OF MILLIWATTS/(CM)(K)

 VISC,MILLIPOISE  0.50282  0.50425  0.50568  0.50711  0.50855  0.50999  0.51144  0.51289

  WITH EQUILIBRIUM REACTIONS

 Cp, KJ/(KG)(K)   27.3740  27.5517  27.7315  27.9133  28.0972  28.2831  28.4712  28.6612
 CONDUCTIVITY     25.3353  25.6397  25.9479  26.2601  26.5762  26.8964  27.2205  27.5486
 PRANDTL NUMBER    0.5433   0.5419   0.5404   0.5390   0.5377   0.5363   0.5349   0.5336

  WITH FROZEN REACTIONS

 Cp, KJ/(KG)(K)   18.7644  18.7752  18.7860  18.7968  18.8075  18.8182  18.8290  18.8397
 CONDUCTIVITY     13.4557  13.5028  13.5501  13.5975  13.6451  13.6929  13.7409  13.7890
 PRANDTL NUMBER    0.7012   0.7011   0.7011   0.7010   0.7009   0.7009   0.7008   0.7008

 MOLE FRACTIONS

 *H               0.02951  0.03025  0.03100  0.03177  0.03255  0.03334  0.03415  0.03497
 *H2              0.97049  0.96975  0.96900  0.96823  0.96745  0.96666  0.96585  0.96503

  * THERMODYNAMIC PROPERTIES FITTED TO 20000.K

 NOTE. WEIGHT FRACTION OF FUEL IN TOTAL FUELS AND OF OXIDANT IN TOTAL OXIDANTS









               THERMODYNAMIC EQUILIBRIUM PROPERTIES AT ASSIGNED

                           TEMPERATURE AND PRESSURE

 CASE =                

             REACTANT                    WT FRACTION      ENERGY      TEMP
                                          (SEE NOTE)     KJ/KG-MOL      K  
             H2                           1.0000000         0.000      0.000

 O/F=    0.00000  %FUEL=100.000000  R,EQ.RATIO= 0.000000  PHI,EQ.RATIO= 0.000000

 THERMODYNAMIC PROPERTIES

 P, BAR            165.00   165.00   165.00   165.00   165.00   180.00   180.00   180.00
 T, K             3400.00  3410.00  3420.00  3430.00  3440.00  3300.00  3310.00  3320.00
 RHO, KG/CU M    1.1555 0 1.1517 0 1.1478 0 1.1439 0 1.1401 0 1.3047 0 1.3003 0 1.2959 0
 H, KJ/KG         55630.1  55919.6  56211.1  56504.5  56799.9  52699.4  52966.9  53236.1
 U, KJ/KG         41351.2  41592.5  41835.6  42080.5  42327.3  38903.0  39123.9  39346.4
 G, KJ/KG       -227559.1-228392.5-229226.7-230061.7-230897.6-218071.2-218892.1-219713.8
 S, KJ/(KG)(K)    83.2910  83.3760  83.4613  83.5470  83.6330  82.0517  82.1326  82.2138

 M, (1/n)           1.980    1.979    1.978    1.977    1.976    1.989    1.988    1.987
 (dLV/dLP)t      -1.00895 -1.00916 -1.00938 -1.00960 -1.00982 -1.00672 -1.00689 -1.00707
 (dLV/dLT)p        1.1460   1.1490   1.1521   1.1552   1.1584   1.1129   1.1154   1.1180
 Cp, KJ/(KG)(K)   28.8534  29.0476  29.2439  29.4422  29.6427  26.6710  26.8378  27.0064
 GAMMAs            1.2228   1.2222   1.2216   1.2210   1.2205   1.2307   1.2300   1.2294
 SON VEL,M/SEC     4178.6   4184.6   4190.6   4196.7   4202.8   4120.5   4126.4   4132.2

 TRANSPORT PROPERTIES (GASES ONLY)
   CONDUCTIVITY IN UNITS OF MILLIWATTS/(CM)(K)

 VISC,MILLIPOISE  0.51435  0.51581  0.51728  0.51875  0.52023  0.49965  0.50106  0.50247

  WITH EQUILIBRIUM REACTIONS

 Cp, KJ/(KG)(K)   28.8534  29.0476  29.2439  29.4422  29.6427  26.6710  26.8378  27.0064
 CONDUCTIVITY     27.8808  28.2170  28.5572  28.9015  29.2499  24.2489  24.5348  24.8244
 PRANDTL NUMBER    0.5323   0.5310   0.5297   0.5285   0.5272   0.5496   0.5481   0.5466

  WITH FROZEN REACTIONS

 Cp, KJ/(KG)(K)   18.8504  18.8610  18.8717  18.8823  18.8929  18.7416  18.7524  18.7632
 CONDUCTIVITY     13.8373  13.8857  13.9343  13.9831  14.0321  13.3500  13.3965  13.4431
 PRANDTL NUMBER    0.7007   0.7006   0.7006   0.7005   0.7004   0.7014   0.7014   0.7013

 MOLE FRACTIONS

 *H               0.03581  0.03666  0.03752  0.03840  0.03930  0.02690  0.02758  0.02827
 *H2              0.96419  0.96334  0.96248  0.96160  0.96070  0.97310  0.97242  0.97173

  * THERMODYNAMIC PROPERTIES FITTED TO 20000.K

 NOTE. WEIGHT FRACTION OF FUEL IN TOTAL FUELS AND OF OXIDANT IN TOTAL OXIDANTS









               THERMODYNAMIC EQUILIBRIUM PROPERTIES AT ASSIGNED

                           TEMPERATURE AND PRESSURE

 CASE =                

             REACTANT                    WT FRACTION      ENERGY      TEMP
                                          (SEE NOTE)     KJ/KG-MOL      K  
             H2                           1.0000000         0.000      0.000

 O/F=    0.00000  %FUEL=100.000000  R,EQ.RATIO= 0.000000  PHI,EQ.RATIO= 0.000000

 THERMODYNAMIC PROPERTIES

 P, BAR            180.00   180.00   180.00   180.00   180.00   180.00   180.00   180.00
 T, K             3330.00  3340.00  3350.00  3360.00  3370.00  3380.00  3390.00  3400.00
 RHO, KG/CU M    1.2916 0 1.2872 0 1.2829 0 1.2786 0 1.2743 0 1.2700 0 1.2658 0 1.2616 0
 H, KJ/KG         53507.0  53779.7  54054.0  54330.2  54608.1  54887.8  55169.3  55452.6
 U, KJ/KG         39570.5  39796.2  40023.4  40252.3  40482.9  40715.1  40949.0  41184.5
 G, KJ/KG       -220536.4-221359.7-222183.9-223008.9-223834.7-224661.4-225488.9-226317.2
 S, KJ/(KG)(K)    82.2953  82.3771  82.4591  82.5414  82.6240  82.7069  82.7900  82.8735

 M, (1/n)           1.987    1.986    1.985    1.984    1.984    1.983    1.982    1.981
 (dLV/dLP)t      -1.00724 -1.00742 -1.00761 -1.00779 -1.00798 -1.00818 -1.00837 -1.00857
 (dLV/dLT)p        1.1206   1.1232   1.1259   1.1286   1.1314   1.1342   1.1370   1.1399
 Cp, KJ/(KG)(K)   27.1771  27.3497  27.5242  27.7007  27.8792  28.0597  28.2421  28.4265
 GAMMAs            1.2287   1.2281   1.2274   1.2268   1.2262   1.2256   1.2250   1.2244
 SON VEL,M/SEC     4138.1   4144.0   4149.9   4155.8   4161.7   4167.7   4173.6   4179.6

 TRANSPORT PROPERTIES (GASES ONLY)
   CONDUCTIVITY IN UNITS OF MILLIWATTS/(CM)(K)

 VISC,MILLIPOISE  0.50389  0.50531  0.50673  0.50816  0.50960  0.51104  0.51248  0.51393

  WITH EQUILIBRIUM REACTIONS

 Cp, KJ/(KG)(K)   27.1771  27.3497  27.5242  27.7007  27.8792  28.0597  28.2421  28.4265
 CONDUCTIVITY     25.1179  25.4151  25.7161  26.0208  26.3295  26.6419  26.9583  27.2785
 PRANDTL NUMBER    0.5452   0.5438   0.5424   0.5410   0.5396   0.5382   0.5369   0.5356

  WITH FROZEN REACTIONS

 Cp, KJ/(KG)(K)   18.7740  18.7847  18.7955  18.8062  18.8169  18.8276  18.8383  18.8490
 CONDUCTIVITY     13.4899  13.5369  13.5840  13.6313  13.6787  13.7263  13.7741  13.8220
 PRANDTL NUMBER    0.7013   0.7012   0.7011   0.7011   0.7010   0.7010   0.7009   0.7008

 MOLE FRACTIONS

 *H               0.02898  0.02970  0.03044  0.03118  0.03194  0.03272  0.03351  0.03431
 *H2              0.97102  0.97030  0.96956  0.96882  0.96806  0.96728  0.96649  0.96569

  * THERMODYNAMIC PROPERTIES FITTED TO 20000.K

 NOTE. WEIGHT FRACTION OF FUEL IN TOTAL FUELS AND OF OXIDANT IN TOTAL OXIDANTS









               THERMODYNAMIC EQUILIBRIUM PROPERTIES AT ASSIGNED

                           TEMPERATURE AND PRESSURE

 CASE =                

             REACTANT                    WT FRACTION      ENERGY      TEMP
                                          (SEE NOTE)     KJ/KG-MOL      K  
             H2                           1.0000000         0.000      0.000

 O/F=    0.00000  %FUEL=100.000000  R,EQ.RATIO= 0.000000  PHI,EQ.RATIO= 0.000000

 THERMODYNAMIC PROPERTIES

 P, BAR            180.00   180.00   180.00   180.00   200.00   200.00   200.00   200.00
 T, K             3410.00  3420.00  3430.00  3440.00  3300.00  3310.00  3320.00  3330.00
 RHO, KG/CU M    1.2573 0 1.2531 0 1.2489 0 1.2448 0 1.4507 0 1.4458 0 1.4410 0 1.4361 0
 H, KJ/KG         55737.8  56024.9  56313.8  56604.7  52539.5  52802.9  53067.9  53334.5
 U, KJ/KG         41421.8  41660.8  41901.6  42144.1  38752.6  38969.7  39188.3  39408.3
 G, KJ/KG       -227146.3-227976.3-228807.2-229638.9-216618.1-217434.1-218250.9-219068.6
 S, KJ/(KG)(K)    82.9572  83.0413  83.1257  83.2103  81.5629  81.6426  81.7225  81.8027

 M, (1/n)           1.980    1.980    1.979    1.978    1.990    1.989    1.989    1.988
 (dLV/dLP)t      -1.00878 -1.00899 -1.00920 -1.00941 -1.00638 -1.00654 -1.00671 -1.00688
 (dLV/dLT)p        1.1428   1.1458   1.1488   1.1518   1.1072   1.1096   1.1120   1.1145
 Cp, KJ/(KG)(K)   28.6129  28.8013  28.9917  29.1840  26.2630  26.4217  26.5823  26.7447
 GAMMAs            1.2238   1.2232   1.2226   1.2220   1.2325   1.2318   1.2312   1.2305
 SON VEL,M/SEC     4185.6   4191.6   4197.6   4203.7   4122.2   4128.0   4133.8   4139.7

 TRANSPORT PROPERTIES (GASES ONLY)
   CONDUCTIVITY IN UNITS OF MILLIWATTS/(CM)(K)

 VISC,MILLIPOISE  0.51538  0.51683  0.51830  0.51976  0.49927  0.50067  0.50207  0.50347

  WITH EQUILIBRIUM REACTIONS

 Cp, KJ/(KG)(K)   28.6129  28.8013  28.9917  29.1840  26.2630  26.4217  26.5823  26.7447
 CONDUCTIVITY     27.6025  27.9305  28.2625  28.5983  23.6831  23.9567  24.2339  24.5147
 PRANDTL NUMBER    0.5342   0.5329   0.5317   0.5304   0.5537   0.5522   0.5507   0.5493

  WITH FROZEN REACTIONS

 Cp, KJ/(KG)(K)   18.8596  18.8702  18.8808  18.8914  18.7402  18.7510  18.7618  18.7725
 CONDUCTIVITY     13.8701  13.9184  13.9668  14.0154  13.3361  13.3822  13.4285  13.4749
 PRANDTL NUMBER    0.7008   0.7007   0.7007   0.7006   0.7016   0.7015   0.7015   0.7014

 MOLE FRACTIONS

 *H               0.03512  0.03595  0.03680  0.03766  0.02554  0.02618  0.02684  0.02752
 *H2              0.96488  0.96405  0.96320  0.96234  0.97446  0.97382  0.97316  0.97248

  * THERMODYNAMIC PROPERTIES FITTED TO 20000.K

 NOTE. WEIGHT FRACTION OF FUEL IN TOTAL FUELS AND OF OXIDANT IN TOTAL OXIDANTS









               THERMODYNAMIC EQUILIBRIUM PROPERTIES AT ASSIGNED

                           TEMPERATURE AND PRESSURE

 CASE =                

             REACTANT                    WT FRACTION      ENERGY      TEMP
                                          (SEE NOTE)     KJ/KG-MOL      K  
             H2                           1.0000000         0.000      0.000

 O/F=    0.00000  %FUEL=100.000000  R,EQ.RATIO= 0.000000  PHI,EQ.RATIO= 0.000000

 THERMODYNAMIC PROPERTIES

 P, BAR            200.00   200.00   200.00   200.00   200.00   200.00   200.00   200.00
 T, K             3340.00  3350.00  3360.00  3370.00  3380.00  3390.00  3400.00  3410.00
 RHO, KG/CU M    1.4313 0 1.4266 0 1.4218 0 1.4171 0 1.4124 0 1.4076 0 1.4030 0 1.3983 0
 H, KJ/KG         53602.8  53872.7  54144.3  54417.6  54692.6  54969.3  55247.8  55528.0
 U, KJ/KG         39629.9  39853.1  40077.7  40304.0  40531.8  40761.2  40992.2  41224.9
 G, KJ/KG       -219887.0-220706.2-221526.3-222347.1-223168.8-223991.3-224814.6-225638.7
 S, KJ/(KG)(K)    81.8832  81.9639  82.0448  82.1260  82.2075  82.2893  82.3713  82.4536

 M, (1/n)           1.987    1.987    1.986    1.985    1.985    1.984    1.983    1.982
 (dLV/dLP)t      -1.00705 -1.00722 -1.00740 -1.00758 -1.00776 -1.00795 -1.00814 -1.00834
 (dLV/dLT)p        1.1170   1.1195   1.1221   1.1247   1.1274   1.1301   1.1328   1.1356
 Cp, KJ/(KG)(K)   26.9090  27.0751  27.2431  27.4130  27.5847  27.7583  27.9338  28.1112
 GAMMAs            1.2299   1.2293   1.2287   1.2280   1.2274   1.2268   1.2262   1.2256
 SON VEL,M/SEC     4145.5   4151.4   4157.3   4163.2   4169.1   4175.0   4180.9   4186.9

 TRANSPORT PROPERTIES (GASES ONLY)
   CONDUCTIVITY IN UNITS OF MILLIWATTS/(CM)(K)

 VISC,MILLIPOISE  0.50488  0.50630  0.50772  0.50914  0.51056  0.51200  0.51343  0.51487

  WITH EQUILIBRIUM REACTIONS

 Cp, KJ/(KG)(K)   26.9090  27.0751  27.2431  27.4130  27.5847  27.7583  27.9338  28.1112
 CONDUCTIVITY     24.7991  25.0871  25.3788  25.6741  25.9730  26.2757  26.5820  26.8921
 PRANDTL NUMBER    0.5478   0.5464   0.5450   0.5436   0.5422   0.5409   0.5395   0.5382

  WITH FROZEN REACTIONS

 Cp, KJ/(KG)(K)   18.7833  18.7940  18.8047  18.8154  18.8261  18.8367  18.8473  18.8579
 CONDUCTIVITY     13.5215  13.5682  13.6151  13.6622  13.7094  13.7568  13.8043  13.8520
 PRANDTL NUMBER    0.7014   0.7013   0.7012   0.7012   0.7011   0.7011   0.7010   0.7009

 MOLE FRACTIONS

 *H               0.02820  0.02890  0.02961  0.03033  0.03107  0.03181  0.03258  0.03335
 *H2              0.97180  0.97110  0.97039  0.96967  0.96893  0.96819  0.96742  0.96665

  * THERMODYNAMIC PROPERTIES FITTED TO 20000.K

 NOTE. WEIGHT FRACTION OF FUEL IN TOTAL FUELS AND OF OXIDANT IN TOTAL OXIDANTS









               THERMODYNAMIC EQUILIBRIUM PROPERTIES AT ASSIGNED

                           TEMPERATURE AND PRESSURE

 CASE =                

             REACTANT                    WT FRACTION      ENERGY      TEMP
                                          (SEE NOTE)     KJ/KG-MOL      K  
             H2                           1.0000000         0.000      0.000

 O/F=    0.00000  %FUEL=100.000000  R,EQ.RATIO= 0.000000  PHI,EQ.RATIO= 0.000000

 THERMODYNAMIC PROPERTIES

 P, BAR            200.00   200.00   200.00   225.00   225.00   225.00   225.00   225.00
 T, K             3420.00  3430.00  3440.00  3300.00  3310.00  3320.00  3330.00  3340.00
 RHO, KG/CU M    1.3937 0 1.3890 0 1.3844 0 1.6332 0 1.6277 0 1.6223 0 1.6169 0 1.6116 0
 H, KJ/KG         55810.0  56093.8  56379.4  52370.4  52629.5  52890.0  53152.1  53415.8
 U, KJ/KG         41459.2  41695.2  41932.8  38593.6  38806.6  39021.0  39236.9  39454.2
 G, KJ/KG       -226463.6-227289.4-228116.0-214994.8-215805.4-216616.8-217428.9-218241.9
 S, KJ/(KG)(K)    82.5361  82.6190  82.7022  81.0198  81.0981  81.1768  81.2556  81.3346

 M, (1/n)           1.981    1.981    1.980    1.992    1.991    1.990    1.990    1.989
 (dLV/dLP)t      -1.00853 -1.00873 -1.00894 -1.00602 -1.00618 -1.00633 -1.00649 -1.00665
 (dLV/dLT)p        1.1384   1.1413   1.1442   1.1012   1.1034   1.1057   1.1080   1.1104
 Cp, KJ/(KG)(K)   28.2904  28.4716  28.6547  25.8315  25.9818  26.1338  26.2875  26.4430
 GAMMAs            1.2250   1.2244   1.2239   1.2345   1.2338   1.2332   1.2326   1.2319
 SON VEL,M/SEC     4192.9   4198.9   4204.9   4124.0   4129.8   4135.6   4141.4   4147.2

 TRANSPORT PROPERTIES (GASES ONLY)
   CONDUCTIVITY IN UNITS OF MILLIWATTS/(CM)(K)

 VISC,MILLIPOISE  0.51632  0.51777  0.51922  0.49886  0.50025  0.50164  0.50303  0.50443

  WITH EQUILIBRIUM REACTIONS

 Cp, KJ/(KG)(K)   28.2904  28.4716  28.6547  25.8315  25.9818  26.1338  26.2875  26.4430
 CONDUCTIVITY     27.2059  27.5234  27.8447  23.0839  23.3445  23.6085  23.8759  24.1467
 PRANDTL NUMBER    0.5369   0.5356   0.5343   0.5582   0.5568   0.5553   0.5538   0.5524

  WITH FROZEN REACTIONS

 Cp, KJ/(KG)(K)   18.8685  18.8791  18.8897  18.7388  18.7496  18.7603  18.7711  18.7818
 CONDUCTIVITY     13.8998  13.9479  13.9960  13.3212  13.3670  13.4129  13.4589  13.5051
 PRANDTL NUMBER    0.7009   0.7008   0.7008   0.7017   0.7017   0.7016   0.7016   0.7015

 MOLE FRACTIONS

 *H               0.03414  0.03494  0.03576  0.02409  0.02471  0.02533  0.02596  0.02661
 *H2              0.96586  0.96506  0.96424  0.97591  0.97529  0.97467  0.97404  0.97339

  * THERMODYNAMIC PROPERTIES FITTED TO 20000.K

 NOTE. WEIGHT FRACTION OF FUEL IN TOTAL FUELS AND OF OXIDANT IN TOTAL OXIDANTS









               THERMODYNAMIC EQUILIBRIUM PROPERTIES AT ASSIGNED

                           TEMPERATURE AND PRESSURE

 CASE =                

             REACTANT                    WT FRACTION      ENERGY      TEMP
                                          (SEE NOTE)     KJ/KG-MOL      K  
             H2                           1.0000000         0.000      0.000

 O/F=    0.00000  %FUEL=100.000000  R,EQ.RATIO= 0.000000  PHI,EQ.RATIO= 0.000000

 THERMODYNAMIC PROPERTIES

 P, BAR            225.00   225.00   225.00   225.00   225.00   225.00   225.00   225.00
 T, K             3350.00  3360.00  3370.00  3380.00  3390.00  3400.00  3410.00  3420.00
 RHO, KG/CU M    1.6062 0 1.6009 0 1.5956 0 1.5903 0 1.5850 0 1.5798 0 1.5746 0 1.5694 0
 H, KJ/KG         53681.0  53947.8  54216.2  54486.2  54757.9  55031.2  55306.1  55582.8
 U, KJ/KG         39672.9  39893.1  40114.8  40338.0  40562.7  40788.9  41016.7  41246.0
 G, KJ/KG       -219055.6-219870.2-220685.5-221501.6-222318.6-223136.3-223954.8-224774.2
 S, KJ/(KG)(K)    81.4139  81.4934  81.5732  81.6532  81.7335  81.8140  81.8947  81.9757

 M, (1/n)           1.988    1.988    1.987    1.986    1.986    1.985    1.984    1.983
 (dLV/dLP)t      -1.00682 -1.00698 -1.00715 -1.00733 -1.00750 -1.00768 -1.00787 -1.00805
 (dLV/dLT)p        1.1128   1.1152   1.1177   1.1202   1.1228   1.1254   1.1280   1.1306
 Cp, KJ/(KG)(K)   26.6002  26.7592  26.9200  27.0825  27.2468  27.4128  27.5807  27.7503
 GAMMAs            1.2313   1.2307   1.2301   1.2295   1.2289   1.2283   1.2277   1.2271
 SON VEL,M/SEC     4153.1   4158.9   4164.8   4170.7   4176.6   4182.5   4188.4   4194.3

 TRANSPORT PROPERTIES (GASES ONLY)
   CONDUCTIVITY IN UNITS OF MILLIWATTS/(CM)(K)

 VISC,MILLIPOISE  0.50583  0.50724  0.50865  0.51006  0.51148  0.51291  0.51433  0.51576

  WITH EQUILIBRIUM REACTIONS

 Cp, KJ/(KG)(K)   26.6002  26.7592  26.9200  27.0825  27.2468  27.4128  27.5807  27.7503
 CONDUCTIVITY     24.4210  24.6986  24.9798  25.2644  25.5525  25.8442  26.1393  26.4380
 PRANDTL NUMBER    0.5510   0.5496   0.5482   0.5468   0.5454   0.5440   0.5427   0.5414

  WITH FROZEN REACTIONS

 Cp, KJ/(KG)(K)   18.7925  18.8031  18.8138  18.8244  18.8350  18.8456  18.8562  18.8668
 CONDUCTIVITY     13.5515  13.5980  13.6446  13.6914  13.7383  13.7854  13.8327  13.8801
 PRANDTL NUMBER    0.7015   0.7014   0.7013   0.7013   0.7012   0.7012   0.7011   0.7011

 MOLE FRACTIONS

 *H               0.02727  0.02794  0.02862  0.02932  0.03002  0.03074  0.03147  0.03222
 *H2              0.97273  0.97206  0.97138  0.97068  0.96998  0.96926  0.96853  0.96778

  * THERMODYNAMIC PROPERTIES FITTED TO 20000.K

 NOTE. WEIGHT FRACTION OF FUEL IN TOTAL FUELS AND OF OXIDANT IN TOTAL OXIDANTS









               THERMODYNAMIC EQUILIBRIUM PROPERTIES AT ASSIGNED

                           TEMPERATURE AND PRESSURE

 CASE =                

             REACTANT                    WT FRACTION      ENERGY      TEMP
                                          (SEE NOTE)     KJ/KG-MOL      K  
             H2                           1.0000000         0.000      0.000

 O/F=    0.00000  %FUEL=100.000000  R,EQ.RATIO= 0.000000  PHI,EQ.RATIO= 0.000000

 THERMODYNAMIC PROPERTIES

 P, BAR            225.00   225.00   250.00   250.00   250.00   250.00   250.00   250.00
 T, K             3430.00  3440.00  3300.00  3310.00  3320.00  3330.00  3340.00  3350.00
 RHO, KG/CU M    1.5642 0 1.5591 0 1.8158 0 1.8097 0 1.8038 0 1.7978 0 1.7918 0 1.7859 0
 H, KJ/KG         55861.1  56141.2  52227.4  52482.8  52739.6  52997.8  53257.6  53518.8
 U, KJ/KG         41476.9  41709.4  38459.1  38668.6  38879.6  39091.9  39305.5  39520.5
 G, KJ/KG       -225594.4-226415.3-213543.7-214349.5-215156.0-215963.3-216771.4-217580.3
 S, KJ/(KG)(K)    82.0570  82.1385  80.5367  80.6140  80.6914  80.7691  80.8470  80.9251

 M, (1/n)           1.983    1.982    1.993    1.992    1.992    1.991    1.990    1.990
 (dLV/dLP)t      -1.00824 -1.00843 -1.00572 -1.00586 -1.00601 -1.00616 -1.00631 -1.00647
 (dLV/dLT)p        1.1333   1.1361   1.0960   1.0982   1.1004   1.1026   1.1048   1.1071
 Cp, KJ/(KG)(K)   27.9217  28.0949  25.4665  25.6096  25.7543  25.9007  26.0488  26.1985
 GAMMAs            1.2265   1.2259   1.2362   1.2356   1.2350   1.2343   1.2337   1.2331
 SON VEL,M/SEC     4200.3   4206.2   4125.6   4131.4   4137.2   4143.0   4148.8   4154.6

 TRANSPORT PROPERTIES (GASES ONLY)
   CONDUCTIVITY IN UNITS OF MILLIWATTS/(CM)(K)

 VISC,MILLIPOISE  0.51720  0.51864  0.49852  0.49989  0.50127  0.50266  0.50405  0.50544

  WITH EQUILIBRIUM REACTIONS

 Cp, KJ/(KG)(K)   27.9217  28.0949  25.4665  25.6096  25.7543  25.9007  26.0488  26.1985
 CONDUCTIVITY     26.7403  27.0461  22.5762  22.8258  23.0786  23.3346  23.5939  23.8564
 PRANDTL NUMBER    0.5401   0.5388   0.5623   0.5609   0.5594   0.5579   0.5565   0.5551

  WITH FROZEN REACTIONS

 Cp, KJ/(KG)(K)   18.8773  18.8879  18.7376  18.7484  18.7591  18.7698  18.7805  18.7911
 CONDUCTIVITY     13.9277  13.9754  13.3086  13.3541  13.3996  13.4454  13.4912  13.5372
 PRANDTL NUMBER    0.7010   0.7009   0.7019   0.7018   0.7018   0.7017   0.7017   0.7016

 MOLE FRACTIONS

 *H               0.03298  0.03375  0.02287  0.02345  0.02404  0.02465  0.02526  0.02589
 *H2              0.96702  0.96625  0.97713  0.97655  0.97596  0.97535  0.97474  0.97411

  * THERMODYNAMIC PROPERTIES FITTED TO 20000.K

 NOTE. WEIGHT FRACTION OF FUEL IN TOTAL FUELS AND OF OXIDANT IN TOTAL OXIDANTS









               THERMODYNAMIC EQUILIBRIUM PROPERTIES AT ASSIGNED

                           TEMPERATURE AND PRESSURE

 CASE =                

             REACTANT                    WT FRACTION      ENERGY      TEMP
                                          (SEE NOTE)     KJ/KG-MOL      K  
             H2                           1.0000000         0.000      0.000

 O/F=    0.00000  %FUEL=100.000000  R,EQ.RATIO= 0.000000  PHI,EQ.RATIO= 0.000000

 THERMODYNAMIC PROPERTIES

 P, BAR            250.00   250.00   250.00   250.00   250.00   250.00   250.00   250.00
 T, K             3360.00  3370.00  3380.00  3390.00  3400.00  3410.00  3420.00  3430.00
 RHO, KG/CU M    1.7800 0 1.7742 0 1.7683 0 1.7625 0 1.7567 0 1.7510 0 1.7452 0 1.7395 0
 H, KJ/KG         53781.6  54045.8  54311.6  54579.0  54847.9  55118.4  55390.6  55664.3
 U, KJ/KG         39737.0  39954.8  40174.1  40394.8  40616.9  40840.5  41065.6  41292.2
 G, KJ/KG       -218389.9-219200.3-220011.5-220823.5-221636.3-222449.9-223264.3-224079.5
 S, KJ/(KG)(K)    81.0034  81.0819  81.1607  81.2397  81.3189  81.3983  81.4780  81.5580

 M, (1/n)           1.989    1.988    1.988    1.987    1.986    1.986    1.985    1.984
 (dLV/dLP)t      -1.00663 -1.00679 -1.00696 -1.00712 -1.00730 -1.00747 -1.00765 -1.00783
 (dLV/dLT)p        1.1094   1.1118   1.1142   1.1166   1.1190   1.1215   1.1240   1.1266
 Cp, KJ/(KG)(K)   26.3498  26.5029  26.6576  26.8140  26.9720  27.1318  27.2932  27.4564
 GAMMAs            1.2325   1.2319   1.2312   1.2306   1.2301   1.2295   1.2289   1.2283
 SON VEL,M/SEC     4160.5   4166.3   4172.1   4178.0   4183.9   4189.8   4195.7   4201.6

 TRANSPORT PROPERTIES (GASES ONLY)
   CONDUCTIVITY IN UNITS OF MILLIWATTS/(CM)(K)

 VISC,MILLIPOISE  0.50683  0.50823  0.50964  0.51105  0.51246  0.51388  0.51530  0.51672

  WITH EQUILIBRIUM REACTIONS

 Cp, KJ/(KG)(K)   26.3498  26.5029  26.6576  26.8140  26.9720  27.1318  27.2932  27.4564
 CONDUCTIVITY     24.1222  24.3914  24.6638  24.9396  25.2187  25.5012  25.7871  26.0764
 PRANDTL NUMBER    0.5536   0.5522   0.5508   0.5495   0.5481   0.5467   0.5454   0.5441

  WITH FROZEN REACTIONS

 Cp, KJ/(KG)(K)   18.8018  18.8124  18.8230  18.8336  18.8442  18.8547  18.8653  18.8758
 CONDUCTIVITY     13.5833  13.6296  13.6761  13.7226  13.7694  13.8162  13.8633  13.9104
 PRANDTL NUMBER    0.7015   0.7015   0.7014   0.7014   0.7013   0.7013   0.7012   0.7012

 MOLE FRACTIONS

 *H               0.02652  0.02717  0.02783  0.02850  0.02919  0.02988  0.03059  0.03131
 *H2              0.97348  0.97283  0.97217  0.97150  0.97081  0.97012  0.96941  0.96869

  * THERMODYNAMIC PROPERTIES FITTED TO 20000.K

 NOTE. WEIGHT FRACTION OF FUEL IN TOTAL FUELS AND OF OXIDANT IN TOTAL OXIDANTS









               THERMODYNAMIC EQUILIBRIUM PROPERTIES AT ASSIGNED

                           TEMPERATURE AND PRESSURE

 CASE =                

             REACTANT                    WT FRACTION      ENERGY      TEMP
                                          (SEE NOTE)     KJ/KG-MOL      K  
             H2                           1.0000000         0.000      0.000

 O/F=    0.00000  %FUEL=100.000000  R,EQ.RATIO= 0.000000  PHI,EQ.RATIO= 0.000000

 THERMODYNAMIC PROPERTIES

 P, BAR            250.00
 T, K             3440.00
 RHO, KG/CU M    1.7338 0
 H, KJ/KG         55939.7
 U, KJ/KG         41520.4
 G, KJ/KG       -224895.5
 S, KJ/(KG)(K)    81.6381

 M, (1/n)           1.984
 (dLV/dLP)t      -1.00801
 (dLV/dLT)p        1.1292
 Cp, KJ/(KG)(K)   27.6212
 GAMMAs            1.2277
 SON VEL,M/SEC     4207.5

 TRANSPORT PROPERTIES (GASES ONLY)
   CONDUCTIVITY IN UNITS OF MILLIWATTS/(CM)(K)

 VISC,MILLIPOISE  0.51815

  WITH EQUILIBRIUM REACTIONS

 Cp, KJ/(KG)(K)   27.6212
 CONDUCTIVITY     26.3690
 PRANDTL NUMBER    0.5428

  WITH FROZEN REACTIONS

 Cp, KJ/(KG)(K)   18.8863
 CONDUCTIVITY     13.9578
 PRANDTL NUMBER    0.7011

 MOLE FRACTIONS

 *H               0.03205
 *H2              0.96795

  * THERMODYNAMIC PROPERTIES FITTED TO 20000.K

 NOTE. WEIGHT FRACTION OF FUEL IN TOTAL FUELS AND OF OXIDANT IN TOTAL OXIDANTS



  
