
 *******************************************************************************

         NASA-GLENN CHEMICAL EQUILIBRIUM PROGRAM CEA2, MAY 21, 2004
                   BY  BONNIE MCBRIDE AND SANFORD GORDON
      REFS: NASA RP-1311, PART I, 1994 AND NASA RP-1311, PART II, 1996

 *******************************************************************************



  prob tp ions
  p,bar= 12.0,13.2,14.8,16.5,18.0,20.0,22.5,25.0,28.0,31.0,35.0,39.0,44.0,49.0,54
 .0
  t,k= 4650,4660,4670,4680,4690,4700,4710,4720,4730,4740,4750,4760,4770,4780,4790
  
  reac
  na H2                wt%=100.0000
  
  output short
  output siunits
  output transport
  
 end





               THERMODYNAMIC EQUILIBRIUM PROPERTIES AT ASSIGNED

                           TEMPERATURE AND PRESSURE

 CASE =                

             REACTANT                    WT FRACTION      ENERGY      TEMP
                                          (SEE NOTE)     KJ/KG-MOL      K  
             H2                           1.0000000         0.000      0.000

 O/F=    0.00000  %FUEL=100.000000  R,EQ.RATIO= 0.000000  PHI,EQ.RATIO= 0.000000

 THERMODYNAMIC PROPERTIES

 P, BAR            12.000   12.000   12.000   12.000   12.000   12.000   12.000   12.000
 T, K             4650.00  4660.00  4670.00  4680.00  4690.00  4700.00  4710.00  4720.00
 RHO, KG/CU M    4.1135-2 4.0915-2 4.0697-2 4.0481-2 4.0267-2 4.0056-2 3.9846-2 3.9638-2
 H, KJ/KG        195720.1 197050.9 198379.6 199705.7 201029.3 202349.9 203667.4 204981.6
 U, KJ/KG        166547.9 167721.8 168893.4 170062.4 171228.5 172391.5 173551.4 174707.7
 G, KJ/KG       -405825.8-407118.4-408416.2-409717.0-411020.6-412327.0-413636.2-414948.3
 S, KJ/(KG)(K)   129.3647 129.6501 129.9349 130.2185 130.5010 130.7823 131.0623 131.3411

 M, (1/n)           1.325    1.321    1.317    1.313    1.309    1.304    1.300    1.296
 (dLV/dLP)t      -1.12477 -1.12466 -1.12452 -1.12436 -1.12418 -1.12397 -1.12374 -1.12348
 (dLV/dLT)p        2.4984   2.4939   2.4891   2.4840   2.4787   2.4731   2.4672   2.4612
 Cp, KJ/(KG)(K)  133.1903 132.9791 132.7447 132.4883 132.2102 131.9107 131.5899 131.2480
 GAMMAs            1.2037   1.2044   1.2050   1.2057   1.2064   1.2071   1.2078   1.2085
 SON VEL,M/SEC     5925.8   5943.3   5960.9   5978.4   5996.0   6013.5   6031.1   6048.6

 TRANSPORT PROPERTIES (GASES ONLY)
   CONDUCTIVITY IN UNITS OF MILLIWATTS/(CM)(K)

 VISC,MILLIPOISE  0.71061  0.71056  0.71048  0.71039  0.71027  0.71014  0.70998  0.70980

  WITH EQUILIBRIUM REACTIONS

 Cp, KJ/(KG)(K)  133.1902 132.9778 132.7447 132.4883 132.2102 131.9107 131.5899 131.2480
 CONDUCTIVITY    159.1173 158.6636 158.1864 157.6845 157.1586 156.6093 156.0369 155.4420
 PRANDTL NUMBER    0.5948   0.5955   0.5962   0.5969   0.5975   0.5981   0.5987   0.5993

  WITH FROZEN REACTIONS

 Cp, KJ/(KG)(K)   20.3034  20.3106  20.3177  20.3247  20.3316  20.3384  20.3451  20.3517
 CONDUCTIVITY     19.8469  19.8495  19.8522  19.8546  19.8567  19.8583  19.8597  19.8606
 PRANDTL NUMBER    0.7270   0.7271   0.7271   0.7272   0.7273   0.7273   0.7273   0.7274

 MOLE FRACTIONS

 *H               0.68512  0.68934  0.69352  0.69767  0.70178  0.70586  0.70989  0.71389
 *H2              0.31488  0.31066  0.30648  0.30233  0.29822  0.29414  0.29010  0.28610

  * THERMODYNAMIC PROPERTIES FITTED TO 20000.K

 NOTE. WEIGHT FRACTION OF FUEL IN TOTAL FUELS AND OF OXIDANT IN TOTAL OXIDANTS









               THERMODYNAMIC EQUILIBRIUM PROPERTIES AT ASSIGNED

                           TEMPERATURE AND PRESSURE

 CASE =                

             REACTANT                    WT FRACTION      ENERGY      TEMP
                                          (SEE NOTE)     KJ/KG-MOL      K  
             H2                           1.0000000         0.000      0.000

 O/F=    0.00000  %FUEL=100.000000  R,EQ.RATIO= 0.000000  PHI,EQ.RATIO= 0.000000

 THERMODYNAMIC PROPERTIES

 P, BAR            12.000   12.000   12.000   12.000   12.000   12.000   12.000   13.200
 T, K             4730.00  4740.00  4750.00  4760.00  4770.00  4780.00  4790.00  4650.00
 RHO, KG/CU M    3.9432-2 3.9229-2 3.9027-2 3.8828-2 3.8630-2 3.8434-2 3.8241-2 4.5790-2
 H, KJ/KG        206292.3 207599.2 208902.3 210201.2 211495.7 212785.8 214071.1 191574.0
 U, KJ/KG        175860.5 177009.5 178154.5 179295.4 180431.8 181563.8 182691.1 162747.0
 G, KJ/KG       -416263.1-417580.6-418901.0-420224.0-421549.8-422878.3-424209.5-403059.4
 S, KJ/(KG)(K)   131.6185 131.8945 132.1691 132.4423 132.7139 132.9841 133.2527 127.8781

 M, (1/n)           1.292    1.288    1.284    1.281    1.277    1.273    1.269    1.341
 (dLV/dLP)t      -1.12321 -1.12291 -1.12259 -1.12225 -1.12188 -1.12150 -1.12110 -1.12500
 (dLV/dLT)p        2.4548   2.4483   2.4415   2.4345   2.4273   2.4199   2.4122   2.5010
 Cp, KJ/(KG)(K)  130.8855 130.5024 130.0992 129.6762 129.2336 128.7719 128.2913 132.0373
 GAMMAs            1.2092   1.2099   1.2107   1.2114   1.2121   1.2129   1.2137   1.2029
 SON VEL,M/SEC     6066.2   6083.7   6101.3   6118.8   6136.3   6153.8   6171.3   5888.7

 TRANSPORT PROPERTIES (GASES ONLY)
   CONDUCTIVITY IN UNITS OF MILLIWATTS/(CM)(K)

 VISC,MILLIPOISE  0.70961  0.70939  0.70916  0.70891  0.70864  0.70836  0.70806  0.71534

  WITH EQUILIBRIUM REACTIONS

 Cp, KJ/(KG)(K)  130.8855 130.5024 130.0992 129.6762 129.2336 128.7719 128.2913 132.0362
 CONDUCTIVITY    154.8249 154.1863 153.5264 152.8459 152.1453 151.4251 150.6858 159.4851
 PRANDTL NUMBER    0.5999   0.6004   0.6009   0.6014   0.6019   0.6024   0.6028   0.5922

  WITH FROZEN REACTIONS

 Cp, KJ/(KG)(K)   20.3583  20.3647  20.3710  20.3773  20.3834  20.3894  20.3954  20.2914
 CONDUCTIVITY     19.8613  19.8616  19.8617  19.8615  19.8610  19.8603  19.8593  19.9725
 PRANDTL NUMBER    0.7274   0.7274   0.7273   0.7273   0.7273   0.7272   0.7272   0.7268

 MOLE FRACTIONS

 *H               0.71786  0.72178  0.72567  0.72952  0.73333  0.73710  0.74083  0.66937
 *H2              0.28214  0.27822  0.27433  0.27048  0.26667  0.26290  0.25917  0.33063

  * THERMODYNAMIC PROPERTIES FITTED TO 20000.K

 NOTE. WEIGHT FRACTION OF FUEL IN TOTAL FUELS AND OF OXIDANT IN TOTAL OXIDANTS









               THERMODYNAMIC EQUILIBRIUM PROPERTIES AT ASSIGNED

                           TEMPERATURE AND PRESSURE

 CASE =                

             REACTANT                    WT FRACTION      ENERGY      TEMP
                                          (SEE NOTE)     KJ/KG-MOL      K  
             H2                           1.0000000         0.000      0.000

 O/F=    0.00000  %FUEL=100.000000  R,EQ.RATIO= 0.000000  PHI,EQ.RATIO= 0.000000

 THERMODYNAMIC PROPERTIES

 P, BAR            13.200   13.200   13.200   13.200   13.200   13.200   13.200   13.200
 T, K             4660.00  4670.00  4680.00  4690.00  4700.00  4710.00  4720.00  4730.00
 RHO, KG/CU M    4.5545-2 4.5302-2 4.5061-2 4.4823-2 4.4586-2 4.4352-2 4.4120-2 4.3890-2
 H, KJ/KG        192893.8 194212.1 195528.8 196843.7 198156.5 199467.1 200775.2 202080.6
 U, KJ/KG        163911.6 165074.5 166235.5 167394.4 168551.1 169705.2 170856.8 172005.5
 G, KJ/KG       -404339.5-405622.5-406908.4-408197.1-409488.5-410782.8-412079.8-413379.6
 S, KJ/(KG)(K)   128.1616 128.4442 128.7259 129.0066 129.2862 129.5647 129.8422 130.1184

 M, (1/n)           1.337    1.333    1.328    1.324    1.320    1.316    1.312    1.308
 (dLV/dLP)t      -1.12497 -1.12492 -1.12485 -1.12475 -1.12463 -1.12449 -1.12432 -1.12413
 (dLV/dLT)p        2.4975   2.4938   2.4897   2.4855   2.4809   2.4761   2.4711   2.4658
 Cp, KJ/(KG)(K)  131.9073 131.7557 131.5827 131.3885 131.1730 130.9366 130.6794 130.4015
 GAMMAs            1.2036   1.2042   1.2049   1.2055   1.2062   1.2069   1.2075   1.2082
 SON VEL,M/SEC     5906.1   5923.5   5940.9   5958.3   5975.7   5993.2   6010.6   6028.0

 TRANSPORT PROPERTIES (GASES ONLY)
   CONDUCTIVITY IN UNITS OF MILLIWATTS/(CM)(K)

 VISC,MILLIPOISE  0.71538  0.71540  0.71540  0.71538  0.71533  0.71526  0.71517  0.71506

  WITH EQUILIBRIUM REACTIONS

 Cp, KJ/(KG)(K)  131.9073 131.7557 131.5827 131.3885 131.1730 130.9366 130.6794 130.4015
 CONDUCTIVITY    159.1323 158.7542 158.3514 157.9244 157.4734 156.9988 156.5011 155.9805
 PRANDTL NUMBER    0.5930   0.5937   0.5945   0.5952   0.5959   0.5965   0.5972   0.5978

  WITH FROZEN REACTIONS

 Cp, KJ/(KG)(K)   20.2987  20.3059  20.3130  20.3201  20.3270  20.3339  20.3406  20.3473
 CONDUCTIVITY     19.9775  19.9820  19.9861  19.9898  19.9931  19.9959  19.9984  20.0005
 PRANDTL NUMBER    0.7269   0.7270   0.7271   0.7272   0.7273   0.7274   0.7274   0.7275

 MOLE FRACTIONS

 *H               0.67365  0.67790  0.68211  0.68629  0.69043  0.69454  0.69861  0.70265
 *H2              0.32635  0.32210  0.31789  0.31371  0.30957  0.30546  0.30139  0.29735

  * THERMODYNAMIC PROPERTIES FITTED TO 20000.K

 NOTE. WEIGHT FRACTION OF FUEL IN TOTAL FUELS AND OF OXIDANT IN TOTAL OXIDANTS









               THERMODYNAMIC EQUILIBRIUM PROPERTIES AT ASSIGNED

                           TEMPERATURE AND PRESSURE

 CASE =                

             REACTANT                    WT FRACTION      ENERGY      TEMP
                                          (SEE NOTE)     KJ/KG-MOL      K  
             H2                           1.0000000         0.000      0.000

 O/F=    0.00000  %FUEL=100.000000  R,EQ.RATIO= 0.000000  PHI,EQ.RATIO= 0.000000

 THERMODYNAMIC PROPERTIES

 P, BAR            13.200   13.200   13.200   13.200   13.200   13.200   14.800   14.800
 T, K             4740.00  4750.00  4760.00  4770.00  4780.00  4790.00  4650.00  4660.00
 RHO, KG/CU M    4.3662-2 4.3437-2 4.3214-2 4.2992-2 4.2773-2 4.2556-2 5.2080-2 5.1801-2
 H, KJ/KG        203383.1 204682.6 205978.8 207271.4 208560.5 209845.6 186660.3 187963.2
 U, KJ/KG        173151.2 174293.7 175432.8 176568.3 177700.1 178827.9 158242.6 159392.5
 G, KJ/KG       -414682.2-415987.5-417295.5-418606.3-419919.7-421235.9-399784.8-401047.3
 S, KJ/(KG)(K)   130.3935 130.6674 130.9400 131.2113 131.4812 131.7498 126.1172 126.3971

 M, (1/n)           1.304    1.300    1.296    1.292    1.288    1.284    1.361    1.356
 (dLV/dLP)t      -1.12392 -1.12369 -1.12344 -1.12316 -1.12287 -1.12255 -1.12483 -1.12491
 (dLV/dLT)p        2.4603   2.4545   2.4485   2.4423   2.4358   2.4292   2.4991   2.4968
 Cp, KJ/(KG)(K)  130.1033 129.7848 129.4464 129.0883 128.7108 128.3141 130.2937 130.2558
 GAMMAs            1.2089   1.2096   1.2103   1.2110   1.2118   1.2125   1.2021   1.2027
 SON VEL,M/SEC     6045.5   6062.9   6080.3   6097.7   6115.2   6132.6   5844.7   5861.9

 TRANSPORT PROPERTIES (GASES ONLY)
   CONDUCTIVITY IN UNITS OF MILLIWATTS/(CM)(K)

 VISC,MILLIPOISE  0.71493  0.71478  0.71461  0.71442  0.71422  0.71399  0.72058  0.72075

  WITH EQUILIBRIUM REACTIONS

 Cp, KJ/(KG)(K)  130.1033 129.7848 129.4464 129.0883 128.7108 128.3141 130.2926 130.2558
 CONDUCTIVITY    155.4375 154.8725 154.2859 153.6783 153.0499 152.4014 159.4480 159.2121
 PRANDTL NUMBER    0.5984   0.5990   0.5996   0.6001   0.6006   0.6011   0.5888   0.5897

  WITH FROZEN REACTIONS

 Cp, KJ/(KG)(K)   20.3538  20.3603  20.3667  20.3730  20.3792  20.3853  20.2772  20.2846
 CONDUCTIVITY     20.0023  20.0037  20.0047  20.0055  20.0060  20.0062  20.1168  20.1241
 PRANDTL NUMBER    0.7275   0.7275   0.7275   0.7275   0.7275   0.7275   0.7263   0.7265

 MOLE FRACTIONS

 *H               0.70665  0.71062  0.71455  0.71844  0.72230  0.72612  0.65021  0.65455
 *H2              0.29335  0.28938  0.28545  0.28156  0.27770  0.27388  0.34979  0.34545

  * THERMODYNAMIC PROPERTIES FITTED TO 20000.K

 NOTE. WEIGHT FRACTION OF FUEL IN TOTAL FUELS AND OF OXIDANT IN TOTAL OXIDANTS









               THERMODYNAMIC EQUILIBRIUM PROPERTIES AT ASSIGNED

                           TEMPERATURE AND PRESSURE

 CASE =                

             REACTANT                    WT FRACTION      ENERGY      TEMP
                                          (SEE NOTE)     KJ/KG-MOL      K  
             H2                           1.0000000         0.000      0.000

 O/F=    0.00000  %FUEL=100.000000  R,EQ.RATIO= 0.000000  PHI,EQ.RATIO= 0.000000

 THERMODYNAMIC PROPERTIES

 P, BAR            14.800   14.800   14.800   14.800   14.800   14.800   14.800   14.800
 T, K             4670.00  4680.00  4690.00  4700.00  4710.00  4720.00  4730.00  4740.00
 RHO, KG/CU M    5.1525-2 5.1251-2 5.0979-2 5.0710-2 5.0443-2 5.0178-2 4.9916-2 4.9656-2
 H, KJ/KG        189265.4 190567.0 191867.7 193167.3 194465.6 195762.4 197057.5 198350.7
 U, KJ/KG        160541.5 161689.5 162836.3 163981.8 165125.6 166267.7 167407.8 168545.9
 G, KJ/KG       -402312.6-403580.8-404851.7-406125.4-407401.9-408681.1-409963.1-411247.8
 S, KJ/(KG)(K)   126.6762 126.9547 127.2323 127.5091 127.7850 128.0601 128.3342 128.6073

 M, (1/n)           1.352    1.347    1.343    1.339    1.335    1.331    1.326    1.322
 (dLV/dLP)t      -1.12496 -1.12499 -1.12500 -1.12498 -1.12495 -1.12489 -1.12480 -1.12470
 (dLV/dLT)p        2.4943   2.4915   2.4884   2.4851   2.4816   2.4778   2.4737   2.4694
 Cp, KJ/(KG)(K)  130.1973 130.1182 130.0186 129.8986 129.7583 129.5976 129.4169 129.2161
 GAMMAs            1.2033   1.2039   1.2045   1.2052   1.2058   1.2065   1.2071   1.2078
 SON VEL,M/SEC     5879.1   5896.3   5913.5   5930.8   5948.0   5965.3   5982.6   5999.8

 TRANSPORT PROPERTIES (GASES ONLY)
   CONDUCTIVITY IN UNITS OF MILLIWATTS/(CM)(K)

 VISC,MILLIPOISE  0.72089  0.72100  0.72109  0.72116  0.72120  0.72122  0.72122  0.72120

  WITH EQUILIBRIUM REACTIONS

 Cp, KJ/(KG)(K)  130.1973 130.1182 130.0186 129.8986 129.7583 129.5976 129.4169 129.2161
 CONDUCTIVITY    158.9509 158.6650 158.3547 158.0204 157.6621 157.2803 156.8752 156.4472
 PRANDTL NUMBER    0.5905   0.5913   0.5921   0.5928   0.5936   0.5943   0.5950   0.5957

  WITH FROZEN REACTIONS

 Cp, KJ/(KG)(K)   20.2920  20.2992  20.3064  20.3135  20.3205  20.3274  20.3342  20.3409
 CONDUCTIVITY     20.1309  20.1372  20.1431  20.1484  20.1534  20.1578  20.1619  20.1656
 PRANDTL NUMBER    0.7267   0.7268   0.7269   0.7271   0.7272   0.7273   0.7274   0.7275

 MOLE FRACTIONS

 *H               0.65886  0.66313  0.66738  0.67159  0.67577  0.67992  0.68404  0.68812
 *H2              0.34114  0.33687  0.33262  0.32841  0.32423  0.32008  0.31596  0.31188

  * THERMODYNAMIC PROPERTIES FITTED TO 20000.K

 NOTE. WEIGHT FRACTION OF FUEL IN TOTAL FUELS AND OF OXIDANT IN TOTAL OXIDANTS









               THERMODYNAMIC EQUILIBRIUM PROPERTIES AT ASSIGNED

                           TEMPERATURE AND PRESSURE

 CASE =                

             REACTANT                    WT FRACTION      ENERGY      TEMP
                                          (SEE NOTE)     KJ/KG-MOL      K  
             H2                           1.0000000         0.000      0.000

 O/F=    0.00000  %FUEL=100.000000  R,EQ.RATIO= 0.000000  PHI,EQ.RATIO= 0.000000

 THERMODYNAMIC PROPERTIES

 P, BAR            14.800   14.800   14.800   14.800   14.800   16.500   16.500   16.500
 T, K             4750.00  4760.00  4770.00  4780.00  4790.00  4650.00  4660.00  4670.00
 RHO, KG/CU M    4.9399-2 4.9144-2 4.8891-2 4.8640-2 4.8392-2 5.8854-2 5.8540-2 5.8228-2
 H, KJ/KG        199641.8 200930.6 202216.8 203500.4 204781.1 182068.7 183352.1 184635.7
 U, KJ/KG        169681.6 170814.8 171945.3 173073.0 174197.7 154033.3 155166.2 156299.0
 G, KJ/KG       -412535.2-413825.4-415118.2-416413.8-417712.0-396715.6-397961.7-399210.5
 S, KJ/(KG)(K)   128.8794 129.1504 129.4203 129.6892 129.9568 124.4697 124.7454 125.0206

 M, (1/n)           1.318    1.314    1.310    1.306    1.302    1.379    1.375    1.370
 (dLV/dLP)t      -1.12457 -1.12442 -1.12425 -1.12406 -1.12385 -1.12427 -1.12444 -1.12458
 (dLV/dLT)p        2.4649   2.4601   2.4550   2.4498   2.4443   2.4923   2.4912   2.4898
 Cp, KJ/(KG)(K)  128.9954 128.7550 128.4950 128.2157 127.9172 128.3104 128.3525 128.3751
 GAMMAs            1.2085   1.2091   1.2098   1.2105   1.2112   1.2014   1.2019   1.2025
 SON VEL,M/SEC     6017.1   6034.4   6051.7   6069.0   6086.3   5803.5   5820.5   5837.4

 TRANSPORT PROPERTIES (GASES ONLY)
   CONDUCTIVITY IN UNITS OF MILLIWATTS/(CM)(K)

 VISC,MILLIPOISE  0.72116  0.72109  0.72100  0.72090  0.72077  0.72512  0.72539  0.72565

  WITH EQUILIBRIUM REACTIONS

 Cp, KJ/(KG)(K)  128.9954 128.7550 128.4950 128.2157 127.9172 128.3104 128.3525 128.3751
 CONDUCTIVITY    155.9965 155.5236 155.0288 154.5124 153.9749 158.9487 158.8191 158.6650
 PRANDTL NUMBER    0.5963   0.5970   0.5976   0.5982   0.5988   0.5853   0.5862   0.5871

  WITH FROZEN REACTIONS

 Cp, KJ/(KG)(K)   20.3475  20.3541  20.3605  20.3669  20.3732  20.2639  20.2714  20.2789
 CONDUCTIVITY     20.1688  20.1717  20.1742  20.1764  20.1782  20.2458  20.2554  20.2645
 PRANDTL NUMBER    0.7275   0.7276   0.7277   0.7277   0.7277   0.7258   0.7260   0.7262

 MOLE FRACTIONS

 *H               0.69217  0.69619  0.70017  0.70412  0.70803  0.63180  0.63618  0.64053
 *H2              0.30783  0.30381  0.29983  0.29588  0.29197  0.36819  0.36382  0.35947

  * THERMODYNAMIC PROPERTIES FITTED TO 20000.K

 NOTE. WEIGHT FRACTION OF FUEL IN TOTAL FUELS AND OF OXIDANT IN TOTAL OXIDANTS









               THERMODYNAMIC EQUILIBRIUM PROPERTIES AT ASSIGNED

                           TEMPERATURE AND PRESSURE

 CASE =                

             REACTANT                    WT FRACTION      ENERGY      TEMP
                                          (SEE NOTE)     KJ/KG-MOL      K  
             H2                           1.0000000         0.000      0.000

 O/F=    0.00000  %FUEL=100.000000  R,EQ.RATIO= 0.000000  PHI,EQ.RATIO= 0.000000

 THERMODYNAMIC PROPERTIES

 P, BAR            16.500   16.500   16.500   16.500   16.500   16.500   16.500   16.500
 T, K             4680.00  4690.00  4700.00  4710.00  4720.00  4730.00  4740.00  4750.00
 RHO, KG/CU M    5.7919-2 5.7612-2 5.7308-2 5.7007-2 5.6708-2 5.6411-2 5.6117-2 5.5825-2
 H, KJ/KG        185919.5 187203.2 188486.7 189769.7 191052.0 192333.5 193614.0 194893.2
 U, KJ/KG        157431.5 158563.5 159695.0 160825.7 161955.4 163083.9 164211.1 165336.8
 G, KJ/KG       -400462.1-401716.4-402973.4-404233.2-405495.7-406761.0-408028.9-409299.6
 S, KJ/(KG)(K)   125.2952 125.5692 125.8426 126.1153 126.3872 126.6585 126.9289 127.1985

 M, (1/n)           1.366    1.362    1.357    1.353    1.349    1.345    1.340    1.336
 (dLV/dLP)t      -1.12471 -1.12481 -1.12489 -1.12495 -1.12499 -1.12500 -1.12499 -1.12496
 (dLV/dLT)p        2.4881   2.4862   2.4840   2.4816   2.4789   2.4760   2.4729   2.4694
 Cp, KJ/(KG)(K)  128.3783 128.3619 128.3260 128.2706 128.1957 128.1014 127.9878 127.8549
 GAMMAs            1.2031   1.2037   1.2043   1.2049   1.2056   1.2062   1.2068   1.2075
 SON VEL,M/SEC     5854.5   5871.5   5888.5   5905.6   5922.7   5939.8   5956.9   5974.0

 TRANSPORT PROPERTIES (GASES ONLY)
   CONDUCTIVITY IN UNITS OF MILLIWATTS/(CM)(K)

 VISC,MILLIPOISE  0.72588  0.72608  0.72626  0.72641  0.72655  0.72665  0.72674  0.72680

  WITH EQUILIBRIUM REACTIONS

 Cp, KJ/(KG)(K)  128.3783 128.3619 128.3260 128.2706 128.1957 128.1014 127.9878 127.8549
 CONDUCTIVITY    158.4866 158.2841 158.0576 157.8073 157.5335 157.2363 156.9161 156.5730
 PRANDTL NUMBER    0.5880   0.5888   0.5896   0.5905   0.5912   0.5920   0.5928   0.5935

  WITH FROZEN REACTIONS

 Cp, KJ/(KG)(K)   20.2863  20.2936  20.3008  20.3079  20.3149  20.3219  20.3287  20.3355
 CONDUCTIVITY     20.2731  20.2812  20.2888  20.2958  20.3024  20.3086  20.3142  20.3195
 PRANDTL NUMBER    0.7263   0.7265   0.7267   0.7268   0.7270   0.7271   0.7273   0.7274

 MOLE FRACTIONS

 *H               0.64486  0.64915  0.65342  0.65765  0.66186  0.66604  0.67019  0.67430
 *H2              0.35514  0.35085  0.34658  0.34235  0.33814  0.33396  0.32981  0.32570

  * THERMODYNAMIC PROPERTIES FITTED TO 20000.K

 NOTE. WEIGHT FRACTION OF FUEL IN TOTAL FUELS AND OF OXIDANT IN TOTAL OXIDANTS









               THERMODYNAMIC EQUILIBRIUM PROPERTIES AT ASSIGNED

                           TEMPERATURE AND PRESSURE

 CASE =                

             REACTANT                    WT FRACTION      ENERGY      TEMP
                                          (SEE NOTE)     KJ/KG-MOL      K  
             H2                           1.0000000         0.000      0.000

 O/F=    0.00000  %FUEL=100.000000  R,EQ.RATIO= 0.000000  PHI,EQ.RATIO= 0.000000

 THERMODYNAMIC PROPERTIES

 P, BAR            16.500   16.500   16.500   16.500   18.000   18.000   18.000   18.000
 T, K             4760.00  4770.00  4780.00  4790.00  4650.00  4660.00  4670.00  4680.00
 RHO, KG/CU M    5.5536-2 5.5250-2 5.4966-2 5.4685-2 6.4901-2 6.4555-2 6.4213-2 6.3872-2
 H, KJ/KG        196171.0 197447.2 198721.6 199994.0 178457.9 179723.6 180990.2 182257.6
 U, KJ/KG        166460.8 167583.0 168703.1 169821.1 150723.2 151840.5 152958.3 154076.4
 G, KJ/KG       -410572.9-411848.9-413127.6-414408.9-394289.3-395522.4-396758.2-397996.7
 S, KJ/(KG)(K)   127.4672 127.7350 128.0019 128.2678 123.1714 123.4433 123.7149 123.9860

 M, (1/n)           1.332    1.328    1.324    1.320    1.394    1.390    1.385    1.381
 (dLV/dLP)t      -1.12491 -1.12484 -1.12474 -1.12463 -1.12355 -1.12379 -1.12400 -1.12420
 (dLV/dLT)p        2.4658   2.4619   2.4578   2.4534   2.4836   2.4834   2.4828   2.4820
 Cp, KJ/(KG)(K)  127.7027 127.5315 127.3412 127.1322 126.5200 126.6205 126.7026 126.7662
 GAMMAs            1.2081   1.2088   1.2094   1.2101   1.2008   1.2014   1.2020   1.2025
 SON VEL,M/SEC     5991.1   6008.2   6025.4   6042.5   5771.0   5787.8   5804.6   5821.4

 TRANSPORT PROPERTIES (GASES ONLY)
   CONDUCTIVITY IN UNITS OF MILLIWATTS/(CM)(K)

 VISC,MILLIPOISE  0.72684  0.72686  0.72686  0.72683  0.72842  0.72879  0.72913  0.72946

  WITH EQUILIBRIUM REACTIONS

 Cp, KJ/(KG)(K)  127.7027 127.5315 127.3412 127.1322 126.5199 126.6205 126.7026 126.7662
 CONDUCTIVITY    156.2073 155.8193 155.4093 154.9777 158.2397 158.1917 158.1198 158.0240
 PRANDTL NUMBER    0.5942   0.5949   0.5956   0.5962   0.5824   0.5833   0.5843   0.5852

  WITH FROZEN REACTIONS

 Cp, KJ/(KG)(K)   20.3422  20.3488  20.3553  20.3617  20.2534  20.2611  20.2686  20.2761
 CONDUCTIVITY     20.3243  20.3286  20.3326  20.3362  20.3428  20.3544  20.3655  20.3760
 PRANDTL NUMBER    0.7275   0.7276   0.7277   0.7277   0.7252   0.7254   0.7257   0.7259

 MOLE FRACTIONS

 *H               0.67839  0.68244  0.68646  0.69045  0.61697  0.62137  0.62575  0.63010
 *H2              0.32161  0.31756  0.31353  0.30954  0.38303  0.37863  0.37425  0.36990

  * THERMODYNAMIC PROPERTIES FITTED TO 20000.K

 NOTE. WEIGHT FRACTION OF FUEL IN TOTAL FUELS AND OF OXIDANT IN TOTAL OXIDANTS









               THERMODYNAMIC EQUILIBRIUM PROPERTIES AT ASSIGNED

                           TEMPERATURE AND PRESSURE

 CASE =                

             REACTANT                    WT FRACTION      ENERGY      TEMP
                                          (SEE NOTE)     KJ/KG-MOL      K  
             H2                           1.0000000         0.000      0.000

 O/F=    0.00000  %FUEL=100.000000  R,EQ.RATIO= 0.000000  PHI,EQ.RATIO= 0.000000

 THERMODYNAMIC PROPERTIES

 P, BAR            18.000   18.000   18.000   18.000   18.000   18.000   18.000   18.000
 T, K             4690.00  4700.00  4710.00  4720.00  4730.00  4740.00  4750.00  4760.00
 RHO, KG/CU M    6.3535-2 6.3200-2 6.2868-2 6.2539-2 6.2212-2 6.1888-2 6.1566-2 6.1248-2
 H, KJ/KG        183525.5 184793.8 186062.2 187330.6 188598.8 189866.6 191133.9 192400.3
 U, KJ/KG        155194.7 156312.9 157430.9 158548.4 159665.5 160781.8 161897.2 163011.5
 G, KJ/KG       -399237.9-400481.8-401728.4-402977.7-404229.7-405484.4-406741.7-408001.8
 S, KJ/(KG)(K)   124.2566 124.5267 124.7963 125.0653 125.3337 125.6015 125.8685 126.1349

 M, (1/n)           1.376    1.372    1.368    1.364    1.359    1.355    1.351    1.347
 (dLV/dLP)t      -1.12437 -1.12453 -1.12466 -1.12477 -1.12486 -1.12492 -1.12497 -1.12500
 (dLV/dLT)p        2.4810   2.4797   2.4782   2.4764   2.4743   2.4721   2.4695   2.4668
 Cp, KJ/(KG)(K)  126.8111 126.8374 126.8451 126.8341 126.8044 126.7560 126.6890 126.6033
 GAMMAs            1.2031   1.2037   1.2043   1.2049   1.2055   1.2061   1.2067   1.2074
 SON VEL,M/SEC     5838.3   5855.2   5872.1   5889.0   5905.9   5922.8   5939.8   5956.8

 TRANSPORT PROPERTIES (GASES ONLY)
   CONDUCTIVITY IN UNITS OF MILLIWATTS/(CM)(K)

 VISC,MILLIPOISE  0.72975  0.73002  0.73027  0.73049  0.73069  0.73086  0.73101  0.73114

  WITH EQUILIBRIUM REACTIONS

 Cp, KJ/(KG)(K)  126.8111 126.8374 126.8451 126.8341 126.8044 126.7560 126.6890 126.6033
 CONDUCTIVITY    157.9045 157.7614 157.5948 157.4049 157.1919 156.9558 156.6970 156.4156
 PRANDTL NUMBER    0.5861   0.5869   0.5878   0.5886   0.5894   0.5902   0.5910   0.5918

  WITH FROZEN REACTIONS

 Cp, KJ/(KG)(K)   20.2835  20.2908  20.2980  20.3051  20.3121  20.3191  20.3260  20.3327
 CONDUCTIVITY     20.3860  20.3954  20.4043  20.4127  20.4206  20.4280  20.4349  20.4414
 PRANDTL NUMBER    0.7261   0.7263   0.7265   0.7266   0.7268   0.7270   0.7271   0.7273

 MOLE FRACTIONS

 *H               0.63442  0.63872  0.64300  0.64724  0.65146  0.65565  0.65981  0.66394
 *H2              0.36558  0.36128  0.35700  0.35276  0.34854  0.34435  0.34019  0.33606

  * THERMODYNAMIC PROPERTIES FITTED TO 20000.K

 NOTE. WEIGHT FRACTION OF FUEL IN TOTAL FUELS AND OF OXIDANT IN TOTAL OXIDANTS









               THERMODYNAMIC EQUILIBRIUM PROPERTIES AT ASSIGNED

                           TEMPERATURE AND PRESSURE

 CASE =                

             REACTANT                    WT FRACTION      ENERGY      TEMP
                                          (SEE NOTE)     KJ/KG-MOL      K  
             H2                           1.0000000         0.000      0.000

 O/F=    0.00000  %FUEL=100.000000  R,EQ.RATIO= 0.000000  PHI,EQ.RATIO= 0.000000

 THERMODYNAMIC PROPERTIES

 P, BAR            18.000   18.000   18.000   20.000   20.000   20.000   20.000   20.000
 T, K             4770.00  4780.00  4790.00  4650.00  4660.00  4670.00  4680.00  4690.00
 RHO, KG/CU M    6.0932-2 6.0618-2 6.0308-2 7.3052-2 7.2666-2 7.2282-2 7.1901-2 7.1523-2
 H, KJ/KG        193665.9 194930.3 196193.3 174170.0 175412.3 176656.1 177901.3 179147.7
 U, KJ/KG        164124.6 165236.2 166346.3 146792.4 147889.0 148986.6 150085.2 151184.5
 G, KJ/KG       -409264.4-410529.8-411797.7-391386.0-392603.6-393823.9-395046.8-396272.4
 S, KJ/(KG)(K)   126.4005 126.6653 126.9292 121.6250 121.8918 122.1584 122.4248 122.6908

 M, (1/n)           1.343    1.338    1.334    1.412    1.408    1.403    1.399    1.395
 (dLV/dLP)t      -1.12500 -1.12498 -1.12494 -1.12237 -1.12269 -1.12299 -1.12326 -1.12352
 (dLV/dLT)p        2.4638   2.4605   2.4571   2.4695   2.4702   2.4706   2.4709   2.4708
 Cp, KJ/(KG)(K)  126.4991 126.3765 126.2354 124.1403 124.3048 124.4521 124.5822 124.6949
 GAMMAs            1.2080   1.2086   1.2093   1.2003   1.2008   1.2014   1.2019   1.2025
 SON VEL,M/SEC     5973.8   5990.8   6007.8   5732.5   5749.0   5765.5   5782.1   5798.7

 TRANSPORT PROPERTIES (GASES ONLY)
   CONDUCTIVITY IN UNITS OF MILLIWATTS/(CM)(K)

 VISC,MILLIPOISE  0.73124  0.73133  0.73139  0.73202  0.73250  0.73296  0.73340  0.73381

  WITH EQUILIBRIUM REACTIONS

 Cp, KJ/(KG)(K)  126.4991 126.3765 126.2354 124.1403 124.3048 124.4521 124.5822 124.6949
 CONDUCTIVITY    156.1118 155.7860 155.4382 157.0359 157.0815 157.1040 157.1035 157.0799
 PRANDTL NUMBER    0.5925   0.5933   0.5940   0.5787   0.5797   0.5806   0.5816   0.5825

  WITH FROZEN REACTIONS

 Cp, KJ/(KG)(K)   20.3394  20.3461  20.3526  20.2410  20.2487  20.2564  20.2639  20.2714
 CONDUCTIVITY     20.4474  20.4530  20.4582  20.4524  20.4665  20.4800  20.4930  20.5054
 PRANDTL NUMBER    0.7274   0.7275   0.7276   0.7245   0.7247   0.7250   0.7252   0.7254

 MOLE FRACTIONS

 *H               0.66804  0.67211  0.67616  0.59893  0.60335  0.60775  0.61212  0.61647
 *H2              0.33196  0.32789  0.32384  0.40107  0.39665  0.39225  0.38788  0.38353

  * THERMODYNAMIC PROPERTIES FITTED TO 20000.K

 NOTE. WEIGHT FRACTION OF FUEL IN TOTAL FUELS AND OF OXIDANT IN TOTAL OXIDANTS









               THERMODYNAMIC EQUILIBRIUM PROPERTIES AT ASSIGNED

                           TEMPERATURE AND PRESSURE

 CASE =                

             REACTANT                    WT FRACTION      ENERGY      TEMP
                                          (SEE NOTE)     KJ/KG-MOL      K  
             H2                           1.0000000         0.000      0.000

 O/F=    0.00000  %FUEL=100.000000  R,EQ.RATIO= 0.000000  PHI,EQ.RATIO= 0.000000

 THERMODYNAMIC PROPERTIES

 P, BAR            20.000   20.000   20.000   20.000   20.000   20.000   20.000   20.000
 T, K             4700.00  4710.00  4720.00  4730.00  4740.00  4750.00  4760.00  4770.00
 RHO, KG/CU M    7.1147-2 7.0775-2 7.0405-2 7.0038-2 6.9674-2 6.9313-2 6.8954-2 6.8599-2
 H, KJ/KG        180395.1 181643.4 182892.4 184141.9 185391.7 186641.7 187891.7 189141.5
 U, KJ/KG        152284.4 153384.7 154485.3 155586.0 156686.6 157787.0 158887.1 159986.6
 G, KJ/KG       -397500.6-398731.5-399965.0-401201.2-402440.1-403681.5-404925.6-406172.4
 S, KJ/(KG)(K)   122.9565 123.2218 123.4867 123.7512 124.0151 124.2786 124.5415 124.8037

 M, (1/n)           1.390    1.386    1.382    1.377    1.373    1.369    1.365    1.360
 (dLV/dLP)t      -1.12376 -1.12397 -1.12417 -1.12434 -1.12450 -1.12463 -1.12474 -1.12484
 (dLV/dLT)p        2.4705   2.4700   2.4693   2.4683   2.4670   2.4655   2.4638   2.4619
 Cp, KJ/(KG)(K)  124.7901 124.8678 124.9279 124.9704 124.9952 125.0023 124.9917 124.9634
 GAMMAs            1.2030   1.2036   1.2042   1.2048   1.2054   1.2060   1.2066   1.2072
 SON VEL,M/SEC     5815.4   5832.0   5848.7   5865.4   5882.2   5898.9   5915.7   5932.5

 TRANSPORT PROPERTIES (GASES ONLY)
   CONDUCTIVITY IN UNITS OF MILLIWATTS/(CM)(K)

 VISC,MILLIPOISE  0.73419  0.73455  0.73488  0.73519  0.73547  0.73573  0.73597  0.73618

  WITH EQUILIBRIUM REACTIONS

 Cp, KJ/(KG)(K)  124.7901 124.8678 124.9279 124.9704 124.9952 125.0023 124.9917 124.9634
 CONDUCTIVITY    157.0334 156.9641 156.8719 156.7570 156.6196 156.4596 156.2774 156.0730
 PRANDTL NUMBER    0.5834   0.5843   0.5852   0.5861   0.5870   0.5878   0.5886   0.5894

  WITH FROZEN REACTIONS

 Cp, KJ/(KG)(K)   20.2788  20.2861  20.2934  20.3005  20.3076  20.3146  20.3215  20.3283
 CONDUCTIVITY     20.5172  20.5284  20.5391  20.5493  20.5590  20.5681  20.5767  20.5849
 PRANDTL NUMBER    0.7257   0.7259   0.7261   0.7263   0.7265   0.7267   0.7268   0.7270

 MOLE FRACTIONS

 *H               0.62080  0.62510  0.62938  0.63363  0.63786  0.64206  0.64624  0.65039
 *H2              0.37920  0.37490  0.37062  0.36637  0.36214  0.35794  0.35376  0.34961

  * THERMODYNAMIC PROPERTIES FITTED TO 20000.K

 NOTE. WEIGHT FRACTION OF FUEL IN TOTAL FUELS AND OF OXIDANT IN TOTAL OXIDANTS









               THERMODYNAMIC EQUILIBRIUM PROPERTIES AT ASSIGNED

                           TEMPERATURE AND PRESSURE

 CASE =                

             REACTANT                    WT FRACTION      ENERGY      TEMP
                                          (SEE NOTE)     KJ/KG-MOL      K  
             H2                           1.0000000         0.000      0.000

 O/F=    0.00000  %FUEL=100.000000  R,EQ.RATIO= 0.000000  PHI,EQ.RATIO= 0.000000

 THERMODYNAMIC PROPERTIES

 P, BAR            20.000   20.000   22.500   22.500   22.500   22.500   22.500   22.500
 T, K             4780.00  4790.00  4650.00  4660.00  4670.00  4680.00  4690.00  4700.00
 RHO, KG/CU M    6.8246-2 6.7897-2 8.3369-2 8.2931-2 8.2497-2 8.2065-2 8.1636-2 8.1210-2
 H, KJ/KG        190390.9 191639.8 169496.2 170709.9 171925.6 173143.5 174363.2 175584.6
 U, KJ/KG        161085.3 162183.2 142507.8 143579.0 144651.8 145726.1 146801.8 147878.7
 G, KJ/KG       -407421.7-408673.7-388184.4-389385.0-390588.3-391794.1-393002.5-394213.6
 S, KJ/(KG)(K)   125.0654 125.3264 119.9313 120.1920 120.4527 120.7132 120.9735 121.2337

 M, (1/n)           1.356    1.352    1.433    1.428    1.424    1.419    1.415    1.410
 (dLV/dLP)t      -1.12491 -1.12496 -1.12069 -1.12109 -1.12147 -1.12183 -1.12217 -1.12250
 (dLV/dLT)p        2.4597   2.4573   2.4494   2.4511   2.4525   2.4538   2.4548   2.4556
 Cp, KJ/(KG)(K)  124.9173 124.8536 121.2457 121.4727 121.6841 121.8798 122.0595 122.2232
 GAMMAs            1.2078   1.2084   1.1998   1.2003   1.2008   1.2013   1.2019   1.2024
 SON VEL,M/SEC     5949.3   5966.1   5690.3   5706.5   5722.8   5739.1   5755.4   5771.8

 TRANSPORT PROPERTIES (GASES ONLY)
   CONDUCTIVITY IN UNITS OF MILLIWATTS/(CM)(K)

 VISC,MILLIPOISE  0.73637  0.73653  0.73553  0.73614  0.73673  0.73729  0.73782  0.73833

  WITH EQUILIBRIUM REACTIONS

 Cp, KJ/(KG)(K)  124.9173 124.8536 121.2457 121.4727 121.6841 121.8798 122.0595 122.2232
 CONDUCTIVITY    155.8466 155.5984 155.2755 155.4182 155.5390 155.6379 155.7147 155.7696
 PRANDTL NUMBER    0.5902   0.5910   0.5743   0.5754   0.5764   0.5774   0.5784   0.5793

  WITH FROZEN REACTIONS

 Cp, KJ/(KG)(K)   20.3350  20.3417  20.2275  20.2353  20.2430  20.2507  20.2583  20.2658
 CONDUCTIVITY     20.5926  20.5998  20.5643  20.5813  20.5977  20.6135  20.6286  20.6432
 PRANDTL NUMBER    0.7272   0.7273   0.7235   0.7238   0.7240   0.7243   0.7246   0.7248

 MOLE FRACTIONS

 *H               0.65451  0.65861  0.57873  0.58315  0.58755  0.59194  0.59630  0.60064
 *H2              0.34549  0.34139  0.42127  0.41685  0.41245  0.40806  0.40370  0.39936

  * THERMODYNAMIC PROPERTIES FITTED TO 20000.K

 NOTE. WEIGHT FRACTION OF FUEL IN TOTAL FUELS AND OF OXIDANT IN TOTAL OXIDANTS









               THERMODYNAMIC EQUILIBRIUM PROPERTIES AT ASSIGNED

                           TEMPERATURE AND PRESSURE

 CASE =                

             REACTANT                    WT FRACTION      ENERGY      TEMP
                                          (SEE NOTE)     KJ/KG-MOL      K  
             H2                           1.0000000         0.000      0.000

 O/F=    0.00000  %FUEL=100.000000  R,EQ.RATIO= 0.000000  PHI,EQ.RATIO= 0.000000

 THERMODYNAMIC PROPERTIES

 P, BAR            22.500   22.500   22.500   22.500   22.500   22.500   22.500   22.500
 T, K             4710.00  4720.00  4730.00  4740.00  4750.00  4760.00  4770.00  4780.00
 RHO, KG/CU M    8.0787-2 8.0368-2 7.9951-2 7.9537-2 7.9127-2 7.8719-2 7.8314-2 7.7913-2
 H, KJ/KG        176807.6 178032.0 179257.6 180484.3 181711.8 182940.2 184169.1 185398.4
 U, KJ/KG        148956.7 150035.6 151115.3 152195.6 153276.4 154357.5 155438.7 156520.0
 G, KJ/KG       -395427.2-396643.4-397862.3-399083.7-400307.7-401534.3-402763.5-403995.2
 S, KJ/(KG)(K)   121.4936 121.7533 122.0127 122.2717 122.5304 122.7888 123.0467 123.3041

 M, (1/n)           1.406    1.402    1.397    1.393    1.389    1.385    1.380    1.376
 (dLV/dLP)t      -1.12280 -1.12308 -1.12335 -1.12359 -1.12382 -1.12403 -1.12421 -1.12438
 (dLV/dLT)p        2.4561   2.4564   2.4565   2.4564   2.4560   2.4554   2.4546   2.4535
 Cp, KJ/(KG)(K)  122.3708 122.5021 122.6171 122.7157 122.7978 122.8633 122.9122 122.9445
 GAMMAs            1.2029   1.2035   1.2040   1.2046   1.2052   1.2057   1.2063   1.2069
 SON VEL,M/SEC     5788.2   5804.6   5821.0   5837.5   5854.0   5870.5   5887.1   5903.7

 TRANSPORT PROPERTIES (GASES ONLY)
   CONDUCTIVITY IN UNITS OF MILLIWATTS/(CM)(K)

 VISC,MILLIPOISE  0.73881  0.73927  0.73970  0.74011  0.74050  0.74086  0.74119  0.74150

  WITH EQUILIBRIUM REACTIONS

 Cp, KJ/(KG)(K)  122.3708 122.5021 122.6171 122.7157 122.7978 122.8633 122.9122 122.9445
 CONDUCTIVITY    155.8026 155.8136 155.8027 155.7699 155.7153 155.6390 155.5410 155.4215
 PRANDTL NUMBER    0.5803   0.5812   0.5821   0.5831   0.5840   0.5848   0.5857   0.5866

  WITH FROZEN REACTIONS

 Cp, KJ/(KG)(K)   20.2732  20.2805  20.2878  20.2950  20.3021  20.3091  20.3160  20.3229
 CONDUCTIVITY     20.6572  20.6706  20.6835  20.6958  20.7075  20.7187  20.7294  20.7396
 PRANDTL NUMBER    0.7251   0.7253   0.7256   0.7258   0.7260   0.7262   0.7264   0.7266

 MOLE FRACTIONS

 *H               0.60497  0.60927  0.61355  0.61781  0.62204  0.62626  0.63044  0.63461
 *H2              0.39503  0.39073  0.38645  0.38219  0.37796  0.37374  0.36956  0.36539

  * THERMODYNAMIC PROPERTIES FITTED TO 20000.K

 NOTE. WEIGHT FRACTION OF FUEL IN TOTAL FUELS AND OF OXIDANT IN TOTAL OXIDANTS









               THERMODYNAMIC EQUILIBRIUM PROPERTIES AT ASSIGNED

                           TEMPERATURE AND PRESSURE

 CASE =                

             REACTANT                    WT FRACTION      ENERGY      TEMP
                                          (SEE NOTE)     KJ/KG-MOL      K  
             H2                           1.0000000         0.000      0.000

 O/F=    0.00000  %FUEL=100.000000  R,EQ.RATIO= 0.000000  PHI,EQ.RATIO= 0.000000

 THERMODYNAMIC PROPERTIES

 P, BAR            22.500   25.000   25.000   25.000   25.000   25.000   25.000   25.000
 T, K             4790.00  4650.00  4660.00  4670.00  4680.00  4690.00  4700.00  4710.00
 RHO, KG/CU M    7.7515-2 9.3809-2 9.3321-2 9.2836-2 9.2354-2 9.1875-2 9.1399-2 9.0926-2
 H, KJ/KG        186627.9 165430.5 166616.8 167805.7 168997.1 170191.0 171387.0 172585.2
 U, KJ/KG        157601.1 138780.6 139827.4 140876.4 141927.2 142980.0 144034.4 145090.4
 G, KJ/KG       -405229.6-385358.9-386544.6-387732.9-388923.8-390117.2-391313.2-392511.7
 S, KJ/(KG)(K)   123.5611 118.4493 118.7042 118.9590 119.2139 119.4687 119.7234 119.9781

 M, (1/n)           1.372    1.451    1.446    1.442    1.437    1.433    1.429    1.424
 (dLV/dLP)t      -1.12453 -1.11890 -1.11936 -1.11981 -1.12024 -1.12065 -1.12104 -1.12142
 (dLV/dLT)p        2.4522   2.4278   2.4303   2.4327   2.4347   2.4366   2.4383   2.4397
 Cp, KJ/(KG)(K)  122.9601 118.4838 118.7590 119.0199 119.2664 119.4984 119.7156 119.9181
 GAMMAs            1.2075   1.1993   1.1998   1.2003   1.2009   1.2014   1.2019   1.2024
 SON VEL,M/SEC     5920.3   5653.5   5669.5   5685.5   5701.5   5717.5   5733.6   5749.8

 TRANSPORT PROPERTIES (GASES ONLY)
   CONDUCTIVITY IN UNITS OF MILLIWATTS/(CM)(K)

 VISC,MILLIPOISE  0.74179  0.73823  0.73895  0.73964  0.74031  0.74096  0.74158  0.74217

  WITH EQUILIBRIUM REACTIONS

 Cp, KJ/(KG)(K)  122.9601 118.4838 118.7590 119.0199 119.2664 119.4984 119.7156 119.9181
 CONDUCTIVITY    155.2805 153.3633 153.5857 153.7873 153.9681 154.1280 154.2671 154.3851
 PRANDTL NUMBER    0.5874   0.5703   0.5714   0.5724   0.5735   0.5745   0.5755   0.5765

  WITH FROZEN REACTIONS

 Cp, KJ/(KG)(K)   20.3297  20.2157  20.2236  20.2314  20.2391  20.2468  20.2544  20.2619
 CONDUCTIVITY     20.7493  20.6546  20.6742  20.6932  20.7116  20.7293  20.7464  20.7629
 PRANDTL NUMBER    0.7268   0.7225   0.7228   0.7231   0.7234   0.7237   0.7240   0.7243

 MOLE FRACTIONS

 *H               0.63875  0.56067  0.56509  0.56948  0.57386  0.57823  0.58257  0.58690
 *H2              0.36125  0.43933  0.43491  0.43052  0.42614  0.42177  0.41743  0.41310

  * THERMODYNAMIC PROPERTIES FITTED TO 20000.K

 NOTE. WEIGHT FRACTION OF FUEL IN TOTAL FUELS AND OF OXIDANT IN TOTAL OXIDANTS









               THERMODYNAMIC EQUILIBRIUM PROPERTIES AT ASSIGNED

                           TEMPERATURE AND PRESSURE

 CASE =                

             REACTANT                    WT FRACTION      ENERGY      TEMP
                                          (SEE NOTE)     KJ/KG-MOL      K  
             H2                           1.0000000         0.000      0.000

 O/F=    0.00000  %FUEL=100.000000  R,EQ.RATIO= 0.000000  PHI,EQ.RATIO= 0.000000

 THERMODYNAMIC PROPERTIES

 P, BAR            25.000   25.000   25.000   25.000   25.000   25.000   25.000   25.000
 T, K             4720.00  4730.00  4740.00  4750.00  4760.00  4770.00  4780.00  4790.00
 RHO, KG/CU M    9.0457-2 8.9991-2 8.9528-2 8.9068-2 8.8612-2 8.8158-2 8.7708-2 8.7262-2
 H, KJ/KG        173785.4 174987.3 176190.9 177395.9 178602.3 179809.9 181018.6 182228.1
 U, KJ/KG        146147.9 147206.7 148266.6 149327.5 150389.3 151451.9 152515.0 153578.6
 G, KJ/KG       -393712.7-394916.3-396122.5-397331.1-398542.4-399756.1-400972.4-402191.2
 S, KJ/(KG)(K)   120.2326 120.4870 120.7412 120.9952 121.2489 121.5023 121.7554 122.0082

 M, (1/n)           1.420    1.416    1.411    1.407    1.403    1.399    1.394    1.390
 (dLV/dLP)t      -1.12177 -1.12211 -1.12243 -1.12273 -1.12302 -1.12328 -1.12353 -1.12376
 (dLV/dLT)p        2.4409   2.4419   2.4427   2.4432   2.4436   2.4437   2.4436   2.4433
 Cp, KJ/(KG)(K)  120.1055 120.2779 120.4350 120.5768 120.7033 120.8142 120.9096 120.9894
 GAMMAs            1.2029   1.2035   1.2040   1.2045   1.2051   1.2056   1.2062   1.2068
 SON VEL,M/SEC     5765.9   5782.1   5798.4   5814.6   5830.9   5847.2   5863.6   5879.9

 TRANSPORT PROPERTIES (GASES ONLY)
   CONDUCTIVITY IN UNITS OF MILLIWATTS/(CM)(K)

 VISC,MILLIPOISE  0.74274  0.74328  0.74380  0.74430  0.74477  0.74521  0.74563  0.74603

  WITH EQUILIBRIUM REACTIONS

 Cp, KJ/(KG)(K)  120.1055 120.2779 120.4350 120.5768 120.7033 120.8142 120.9096 120.9894
 CONDUCTIVITY    154.4822 154.5583 154.6133 154.6474 154.6604 154.6525 154.6237 154.5739
 PRANDTL NUMBER    0.5775   0.5784   0.5794   0.5803   0.5812   0.5822   0.5831   0.5839

  WITH FROZEN REACTIONS

 Cp, KJ/(KG)(K)   20.2693  20.2767  20.2839  20.2911  20.2982  20.3053  20.3123  20.3191
 CONDUCTIVITY     20.7789  20.7942  20.8090  20.8232  20.8368  20.8499  20.8625  20.8745
 PRANDTL NUMBER    0.7245   0.7248   0.7250   0.7253   0.7255   0.7257   0.7260   0.7262

 MOLE FRACTIONS

 *H               0.59121  0.59550  0.59977  0.60402  0.60826  0.61247  0.61665  0.62082
 *H2              0.40879  0.40450  0.40023  0.39597  0.39174  0.38753  0.38334  0.37918

  * THERMODYNAMIC PROPERTIES FITTED TO 20000.K

 NOTE. WEIGHT FRACTION OF FUEL IN TOTAL FUELS AND OF OXIDANT IN TOTAL OXIDANTS









               THERMODYNAMIC EQUILIBRIUM PROPERTIES AT ASSIGNED

                           TEMPERATURE AND PRESSURE

 CASE =                

             REACTANT                    WT FRACTION      ENERGY      TEMP
                                          (SEE NOTE)     KJ/KG-MOL      K  
             H2                           1.0000000         0.000      0.000

 O/F=    0.00000  %FUEL=100.000000  R,EQ.RATIO= 0.000000  PHI,EQ.RATIO= 0.000000

 THERMODYNAMIC PROPERTIES

 P, BAR            28.000   28.000   28.000   28.000   28.000   28.000   28.000   28.000
 T, K             4650.00  4660.00  4670.00  4680.00  4690.00  4700.00  4710.00  4720.00
 RHO, KG/CU M    1.0648-1 1.0593-1 1.0539-1 1.0484-1 1.0430-1 1.0377-1 1.0324-1 1.0271-1
 H, KJ/KG        161185.8 162341.1 163499.6 164661.0 165825.3 166992.3 168161.9 169334.0
 U, KJ/KG        134889.4 135908.6 136930.3 137954.5 138980.9 140009.5 141040.2 142072.7
 G, KJ/KG       -382358.8-383528.9-384701.6-385876.7-387054.3-388234.4-389417.0-390602.0
 S, KJ/(KG)(K)   116.8913 117.1395 117.3878 117.6363 117.8848 118.1333 118.3819 118.6305

 M, (1/n)           1.470    1.466    1.461    1.457    1.453    1.448    1.444    1.440
 (dLV/dLP)t      -1.11669 -1.11722 -1.11773 -1.11822 -1.11870 -1.11916 -1.11961 -1.12003
 (dLV/dLT)p        2.4013   2.4047   2.4078   2.4107   2.4134   2.4159   2.4182   2.4203
 Cp, KJ/(KG)(K)  115.3694 115.6884 115.9946 116.2879 116.5680 116.8349 117.0884 117.3283
 GAMMAs            1.1990   1.1995   1.1999   1.2004   1.2009   1.2014   1.2019   1.2024
 SON VEL,M/SEC     5615.1   5630.7   5646.4   5662.1   5677.8   5693.6   5709.5   5725.3

 TRANSPORT PROPERTIES (GASES ONLY)
   CONDUCTIVITY IN UNITS OF MILLIWATTS/(CM)(K)

 VISC,MILLIPOISE  0.74065  0.74149  0.74230  0.74309  0.74385  0.74458  0.74529  0.74598

  WITH EQUILIBRIUM REACTIONS

 Cp, KJ/(KG)(K)  115.3693 115.6884 115.9946 116.2879 116.5680 116.8349 117.0884 117.3283
 CONDUCTIVITY    150.9880 151.2881 151.5688 151.8301 152.0718 152.2939 152.4962 152.6787
 PRANDTL NUMBER    0.5659   0.5670   0.5681   0.5691   0.5702   0.5712   0.5722   0.5733

  WITH FROZEN REACTIONS

 Cp, KJ/(KG)(K)   20.2035  20.2114  20.2193  20.2271  20.2348  20.2424  20.2500  20.2575
 CONDUCTIVITY     20.7412  20.7636  20.7854  20.8065  20.8271  20.8470  20.8663  20.8850
 PRANDTL NUMBER    0.7215   0.7218   0.7221   0.7224   0.7227   0.7230   0.7233   0.7236

 MOLE FRACTIONS

 *H               0.54133  0.54572  0.55009  0.55446  0.55881  0.56314  0.56746  0.57177
 *H2              0.45867  0.45428  0.44991  0.44554  0.44119  0.43686  0.43254  0.42823

  * THERMODYNAMIC PROPERTIES FITTED TO 20000.K

 NOTE. WEIGHT FRACTION OF FUEL IN TOTAL FUELS AND OF OXIDANT IN TOTAL OXIDANTS









               THERMODYNAMIC EQUILIBRIUM PROPERTIES AT ASSIGNED

                           TEMPERATURE AND PRESSURE

 CASE =                

             REACTANT                    WT FRACTION      ENERGY      TEMP
                                          (SEE NOTE)     KJ/KG-MOL      K  
             H2                           1.0000000         0.000      0.000

 O/F=    0.00000  %FUEL=100.000000  R,EQ.RATIO= 0.000000  PHI,EQ.RATIO= 0.000000

 THERMODYNAMIC PROPERTIES

 P, BAR            28.000   28.000   28.000   28.000   28.000   28.000   28.000   31.000
 T, K             4730.00  4740.00  4750.00  4760.00  4770.00  4780.00  4790.00  4650.00
 RHO, KG/CU M    1.0218-1 1.0166-1 1.0115-1 1.0063-1 1.0012-1 9.9611-2 9.9107-2 1.1928-1
 H, KJ/KG        170508.4 171685.1 172863.7 174044.3 175226.7 176410.7 177596.1 157491.7
 U, KJ/KG        143107.1 144143.2 145180.7 146219.7 147260.0 148301.4 149343.8 131502.9
 G, KJ/KG       -391789.6-392979.6-394172.1-395367.1-396564.6-397764.6-398967.0-379698.0
 S, KJ/(KG)(K)   118.8791 119.1276 119.3760 119.6243 119.8724 120.1203 120.3681 115.5247

 M, (1/n)           1.435    1.431    1.427    1.422    1.418    1.414    1.410    1.488
 (dLV/dLP)t      -1.12045 -1.12084 -1.12122 -1.12158 -1.12192 -1.12225 -1.12255 -1.11450
 (dLV/dLT)p        2.4222   2.4239   2.4254   2.4267   2.4277   2.4286   2.4292   2.3750
 Cp, KJ/(KG)(K)  117.5545 117.7668 117.9652 118.1494 118.3194 118.4751 118.6164 112.4754
 GAMMAs            1.2029   1.2034   1.2040   1.2045   1.2050   1.2056   1.2061   1.1987
 SON VEL,M/SEC     5741.2   5757.2   5773.1   5789.2   5805.2   5821.3   5837.4   5581.5

 TRANSPORT PROPERTIES (GASES ONLY)
   CONDUCTIVITY IN UNITS OF MILLIWATTS/(CM)(K)

 VISC,MILLIPOISE  0.74664  0.74728  0.74789  0.74848  0.74904  0.74958  0.75010  0.74243

  WITH EQUILIBRIUM REACTIONS

 Cp, KJ/(KG)(K)  117.5545 117.7668 117.9652 118.1494 118.3194 118.4751 118.6164 112.4754
 CONDUCTIVITY    152.8414 152.9841 153.1068 153.2096 153.2923 153.3550 153.3976 148.6051
 PRANDTL NUMBER    0.5743   0.5753   0.5762   0.5772   0.5782   0.5791   0.5800   0.5619

  WITH FROZEN REACTIONS

 Cp, KJ/(KG)(K)   20.2650  20.2723  20.2796  20.2868  20.2940  20.3011  20.3080  20.1928
 CONDUCTIVITY     20.9031  20.9206  20.9375  20.9538  20.9696  20.9848  20.9994  20.8094
 PRANDTL NUMBER    0.7238   0.7241   0.7244   0.7247   0.7249   0.7252   0.7254   0.7204

 MOLE FRACTIONS

 *H               0.57606  0.58033  0.58459  0.58883  0.59305  0.59725  0.60143  0.52406
 *H2              0.42394  0.41967  0.41541  0.41117  0.40695  0.40275  0.39857  0.47594

  * THERMODYNAMIC PROPERTIES FITTED TO 20000.K

 NOTE. WEIGHT FRACTION OF FUEL IN TOTAL FUELS AND OF OXIDANT IN TOTAL OXIDANTS









               THERMODYNAMIC EQUILIBRIUM PROPERTIES AT ASSIGNED

                           TEMPERATURE AND PRESSURE

 CASE =                

             REACTANT                    WT FRACTION      ENERGY      TEMP
                                          (SEE NOTE)     KJ/KG-MOL      K  
             H2                           1.0000000         0.000      0.000

 O/F=    0.00000  %FUEL=100.000000  R,EQ.RATIO= 0.000000  PHI,EQ.RATIO= 0.000000

 THERMODYNAMIC PROPERTIES

 P, BAR            31.000   31.000   31.000   31.000   31.000   31.000   31.000   31.000
 T, K             4660.00  4670.00  4680.00  4690.00  4700.00  4710.00  4720.00  4730.00
 RHO, KG/CU M    1.1867-1 1.1807-1 1.1747-1 1.1687-1 1.1628-1 1.1569-1 1.1510-1 1.1452-1
 H, KJ/KG        158618.2 159748.2 160881.5 162018.1 163157.7 164300.4 165445.9 166594.1
 U, KJ/KG        132496.4 133492.7 134491.8 135493.5 136497.7 137504.3 138513.2 139524.3
 G, KJ/KG       -380854.4-382013.3-383174.6-384338.3-385504.5-386673.1-387844.1-389017.5
 S, KJ/(KG)(K)   115.7667 116.0089 116.2513 116.4939 116.7366 116.9795 117.2225 117.4655

 M, (1/n)           1.483    1.479    1.475    1.470    1.466    1.461    1.457    1.453
 (dLV/dLP)t      -1.11507 -1.11563 -1.11618 -1.11671 -1.11722 -1.11772 -1.11821 -1.11868
 (dLV/dLT)p        2.3789   2.3827   2.3863   2.3897   2.3929   2.3959   2.3988   2.4014
 Cp, KJ/(KG)(K)  112.8271 113.1674 113.4959 113.8127 114.1174 114.4100 114.6902 114.9579
 GAMMAs            1.1992   1.1996   1.2001   1.2006   1.2011   1.2015   1.2020   1.2025
 SON VEL,M/SEC     5596.9   5612.2   5627.7   5643.1   5658.6   5674.2   5689.8   5705.4

 TRANSPORT PROPERTIES (GASES ONLY)
   CONDUCTIVITY IN UNITS OF MILLIWATTS/(CM)(K)

 VISC,MILLIPOISE  0.74337  0.74428  0.74516  0.74603  0.74686  0.74768  0.74847  0.74923

  WITH EQUILIBRIUM REACTIONS

 Cp, KJ/(KG)(K)  112.8271 113.1674 113.4959 113.8127 114.1174 114.4100 114.6902 114.9579
 CONDUCTIVITY    148.9680 149.3127 149.6393 149.9475 150.2373 150.5086 150.7612 150.9951
 PRANDTL NUMBER    0.5630   0.5641   0.5652   0.5662   0.5673   0.5684   0.5694   0.5704

  WITH FROZEN REACTIONS

 Cp, KJ/(KG)(K)   20.2008  20.2087  20.2165  20.2243  20.2320  20.2397  20.2473  20.2548
 CONDUCTIVITY     20.8344  20.8587  20.8824  20.9055  20.9279  20.9497  20.9709  20.9915
 PRANDTL NUMBER    0.7208   0.7211   0.7214   0.7217   0.7220   0.7223   0.7226   0.7229

 MOLE FRACTIONS

 *H               0.52842  0.53277  0.53711  0.54144  0.54575  0.55005  0.55435  0.55862
 *H2              0.47158  0.46723  0.46289  0.45856  0.45425  0.44994  0.44565  0.44138

  * THERMODYNAMIC PROPERTIES FITTED TO 20000.K

 NOTE. WEIGHT FRACTION OF FUEL IN TOTAL FUELS AND OF OXIDANT IN TOTAL OXIDANTS









               THERMODYNAMIC EQUILIBRIUM PROPERTIES AT ASSIGNED

                           TEMPERATURE AND PRESSURE

 CASE =                

             REACTANT                    WT FRACTION      ENERGY      TEMP
                                          (SEE NOTE)     KJ/KG-MOL      K  
             H2                           1.0000000         0.000      0.000

 O/F=    0.00000  %FUEL=100.000000  R,EQ.RATIO= 0.000000  PHI,EQ.RATIO= 0.000000

 THERMODYNAMIC PROPERTIES

 P, BAR            31.000   31.000   31.000   31.000   31.000   31.000   35.000   35.000
 T, K             4740.00  4750.00  4760.00  4770.00  4780.00  4790.00  4650.00  4660.00
 RHO, KG/CU M    1.1394-1 1.1336-1 1.1279-1 1.1222-1 1.1166-1 1.1110-1 1.3653-1 1.3585-1
 H, KJ/KG        167745.0 168898.4 170054.1 171212.0 172372.1 173534.1 153237.5 154328.8
 U, KJ/KG        140537.5 141552.6 142569.5 143588.1 144608.4 145630.0 127602.9 128564.9
 G, KJ/KG       -390193.4-391371.7-392552.4-393735.6-394921.2-396109.2-376565.6-377706.1
 S, KJ/(KG)(K)   117.7085 117.9516 118.1946 118.4377 118.6806 118.9234 113.9361 114.1706

 M, (1/n)           1.449    1.444    1.440    1.436    1.431    1.427    1.508    1.504
 (dLV/dLP)t      -1.11913 -1.11957 -1.11999 -1.12040 -1.12079 -1.12116 -1.11165 -1.11227
 (dLV/dLT)p        2.4038   2.4061   2.4081   2.4099   2.4116   2.4130   2.3408   2.3454
 Cp, KJ/(KG)(K)  115.2130 115.4553 115.6847 115.9011 116.1042 116.2941 108.9413 109.3244
 GAMMAs            1.2030   1.2035   1.2040   1.2045   1.2050   1.2056   1.1985   1.1989
 SON VEL,M/SEC     5721.1   5736.8   5752.5   5768.3   5784.1   5800.0   5542.8   5557.8

 TRANSPORT PROPERTIES (GASES ONLY)
   CONDUCTIVITY IN UNITS OF MILLIWATTS/(CM)(K)

 VISC,MILLIPOISE  0.74997  0.75069  0.75138  0.75205  0.75270  0.75332  0.74407  0.74512

  WITH EQUILIBRIUM REACTIONS

 Cp, KJ/(KG)(K)  115.2130 115.4553 115.6847 115.9011 116.1042 116.2941 108.9412 109.3244
 CONDUCTIVITY    151.2101 151.4062 151.5834 151.7414 151.8804 152.0002 145.4963 145.9252
 PRANDTL NUMBER    0.5714   0.5724   0.5734   0.5744   0.5754   0.5764   0.5571   0.5582

  WITH FROZEN REACTIONS

 Cp, KJ/(KG)(K)   20.2622  20.2696  20.2769  20.2841  20.2912  20.2983  20.1805  20.1885
 CONDUCTIVITY     21.0115  21.0309  21.0497  21.0679  21.0855  21.1026  20.8791  20.9070
 PRANDTL NUMBER    0.7232   0.7235   0.7238   0.7241   0.7243   0.7246   0.7192   0.7195

 MOLE FRACTIONS

 *H               0.56289  0.56713  0.57137  0.57559  0.57979  0.58397  0.50366  0.50797
 *H2              0.43711  0.43286  0.42863  0.42441  0.42021  0.41602  0.49634  0.49203

  * THERMODYNAMIC PROPERTIES FITTED TO 20000.K

 NOTE. WEIGHT FRACTION OF FUEL IN TOTAL FUELS AND OF OXIDANT IN TOTAL OXIDANTS









               THERMODYNAMIC EQUILIBRIUM PROPERTIES AT ASSIGNED

                           TEMPERATURE AND PRESSURE

 CASE =                

             REACTANT                    WT FRACTION      ENERGY      TEMP
                                          (SEE NOTE)     KJ/KG-MOL      K  
             H2                           1.0000000         0.000      0.000

 O/F=    0.00000  %FUEL=100.000000  R,EQ.RATIO= 0.000000  PHI,EQ.RATIO= 0.000000

 THERMODYNAMIC PROPERTIES

 P, BAR            35.000   35.000   35.000   35.000   35.000   35.000   35.000   35.000
 T, K             4670.00  4680.00  4690.00  4700.00  4710.00  4720.00  4730.00  4740.00
 RHO, KG/CU M    1.3517-1 1.3449-1 1.3381-1 1.3314-1 1.3248-1 1.3181-1 1.3115-1 1.3050-1
 H, KJ/KG        155423.9 156522.7 157625.1 158731.0 159840.2 160952.6 162068.3 163186.9
 U, KJ/KG        129530.1 130498.3 131469.4 132443.4 133420.2 134399.7 135381.7 136366.2
 G, KJ/KG       -378849.0-379994.2-381141.8-382291.8-383444.0-384598.7-385755.7-386915.1
 S, KJ/(KG)(K)   114.4053 114.6404 114.8757 115.1112 115.3470 115.5829 115.8190 116.0553

 M, (1/n)           1.500    1.495    1.491    1.487    1.482    1.478    1.474    1.469
 (dLV/dLP)t      -1.11288 -1.11348 -1.11407 -1.11464 -1.11520 -1.11575 -1.11628 -1.11679
 (dLV/dLT)p        2.3499   2.3542   2.3583   2.3622   2.3660   2.3696   2.3730   2.3763
 Cp, KJ/(KG)(K)  109.6974 110.0603 110.4128 110.7547 111.0860 111.4063 111.7156 112.0136
 GAMMAs            1.1994   1.1998   1.2003   1.2007   1.2012   1.2016   1.2021   1.2026
 SON VEL,M/SEC     5572.8   5587.9   5603.0   5618.1   5633.3   5648.6   5663.9   5679.2

 TRANSPORT PROPERTIES (GASES ONLY)
   CONDUCTIVITY IN UNITS OF MILLIWATTS/(CM)(K)

 VISC,MILLIPOISE  0.74614  0.74714  0.74812  0.74908  0.75001  0.75092  0.75180  0.75266

  WITH EQUILIBRIUM REACTIONS

 Cp, KJ/(KG)(K)  109.6974 110.0603 110.4128 110.7547 111.0860 111.4063 111.7156 112.0136
 CONDUCTIVITY    146.3375 146.7333 147.1122 147.4743 147.8192 148.1470 148.4575 148.7505
 PRANDTL NUMBER    0.5593   0.5604   0.5615   0.5626   0.5636   0.5647   0.5657   0.5668

  WITH FROZEN REACTIONS

 Cp, KJ/(KG)(K)   20.1965  20.2044  20.2122  20.2200  20.2277  20.2354  20.2430  20.2505
 CONDUCTIVITY     20.9343  20.9610  20.9871  21.0125  21.0374  21.0616  21.0851  21.1081
 PRANDTL NUMBER    0.7198   0.7202   0.7205   0.7208   0.7211   0.7215   0.7218   0.7221

 MOLE FRACTIONS

 *H               0.51228  0.51657  0.52086  0.52514  0.52941  0.53367  0.53792  0.54216
 *H2              0.48772  0.48343  0.47914  0.47486  0.47059  0.46633  0.46208  0.45784

  * THERMODYNAMIC PROPERTIES FITTED TO 20000.K

 NOTE. WEIGHT FRACTION OF FUEL IN TOTAL FUELS AND OF OXIDANT IN TOTAL OXIDANTS









               THERMODYNAMIC EQUILIBRIUM PROPERTIES AT ASSIGNED

                           TEMPERATURE AND PRESSURE

 CASE =                

             REACTANT                    WT FRACTION      ENERGY      TEMP
                                          (SEE NOTE)     KJ/KG-MOL      K  
             H2                           1.0000000         0.000      0.000

 O/F=    0.00000  %FUEL=100.000000  R,EQ.RATIO= 0.000000  PHI,EQ.RATIO= 0.000000

 THERMODYNAMIC PROPERTIES

 P, BAR            35.000   35.000   35.000   35.000   35.000   39.000   39.000   39.000
 T, K             4750.00  4760.00  4770.00  4780.00  4790.00  4650.00  4660.00  4670.00
 RHO, KG/CU M    1.2984-1 1.2920-1 1.2855-1 1.2791-1 1.2727-1 1.5397-1 1.5320-1 1.5244-1
 H, KJ/KG        164308.5 165432.9 166560.0 167689.6 168821.7 149584.9 150644.3 151707.8
 U, KJ/KG        137353.0 138342.1 139333.4 140326.6 141321.8 124254.5 125187.9 126124.7
 G, KJ/KG       -388076.8-389240.9-390407.4-391576.2-392747.4-373808.1-374934.9-376063.9
 S, KJ/(KG)(K)   116.2916 116.5281 116.7646 117.0012 117.2378 112.5576 112.7852 113.0132

 M, (1/n)           1.465    1.461    1.457    1.452    1.448    1.526    1.522    1.518
 (dLV/dLP)t      -1.11730 -1.11779 -1.11826 -1.11872 -1.11916 -1.10893 -1.10959 -1.11024
 (dLV/dLT)p        2.3793   2.3822   2.3849   2.3874   2.3897   2.3081   2.3133   2.3183
 Cp, KJ/(KG)(K)  112.3003 112.5755 112.8390 113.0907 113.3305 105.7430 106.1476 106.5435
 GAMMAs            1.2030   1.2035   1.2040   1.2045   1.2050   1.1983   1.1988   1.1992
 SON VEL,M/SEC     5694.6   5710.0   5725.5   5741.0   5756.5   5509.5   5524.1   5538.8

 TRANSPORT PROPERTIES (GASES ONLY)
   CONDUCTIVITY IN UNITS OF MILLIWATTS/(CM)(K)

 VISC,MILLIPOISE  0.75350  0.75432  0.75511  0.75587  0.75662  0.74511  0.74626  0.74738

  WITH EQUILIBRIUM REACTIONS

 Cp, KJ/(KG)(K)  112.3003 112.5755 112.8390 113.0907 113.3305 105.7430 106.1476 106.5435
 CONDUCTIVITY    149.0259 149.2837 149.5237 149.7459 149.9502 142.5151 142.9949 143.4596
 PRANDTL NUMBER    0.5678   0.5688   0.5698   0.5708   0.5718   0.5529   0.5540   0.5551

  WITH FROZEN REACTIONS

 Cp, KJ/(KG)(K)   20.2579  20.2653  20.2726  20.2799  20.2870  20.1699  20.1780  20.1860
 CONDUCTIVITY     21.1305  21.1523  21.1734  21.1940  21.2140  20.9305  20.9611  20.9910
 PRANDTL NUMBER    0.7224   0.7227   0.7230   0.7233   0.7236   0.7180   0.7184   0.7187

 MOLE FRACTIONS

 *H               0.54639  0.55060  0.55480  0.55899  0.56317  0.48570  0.48995  0.49421
 *H2              0.45361  0.44940  0.44520  0.44101  0.43683  0.51430  0.51005  0.50579

  * THERMODYNAMIC PROPERTIES FITTED TO 20000.K

 NOTE. WEIGHT FRACTION OF FUEL IN TOTAL FUELS AND OF OXIDANT IN TOTAL OXIDANTS









               THERMODYNAMIC EQUILIBRIUM PROPERTIES AT ASSIGNED

                           TEMPERATURE AND PRESSURE

 CASE =                

             REACTANT                    WT FRACTION      ENERGY      TEMP
                                          (SEE NOTE)     KJ/KG-MOL      K  
             H2                           1.0000000         0.000      0.000

 O/F=    0.00000  %FUEL=100.000000  R,EQ.RATIO= 0.000000  PHI,EQ.RATIO= 0.000000

 THERMODYNAMIC PROPERTIES

 P, BAR            39.000   39.000   39.000   39.000   39.000   39.000   39.000   39.000
 T, K             4680.00  4690.00  4700.00  4710.00  4720.00  4730.00  4740.00  4750.00
 RHO, KG/CU M    1.5169-1 1.5094-1 1.5019-1 1.4945-1 1.4871-1 1.4797-1 1.4724-1 1.4651-1
 H, KJ/KG        152775.2 153846.4 154921.3 155999.9 157082.0 158167.5 159256.4 160348.6
 U, KJ/KG        127064.7 128008.0 128954.4 129903.8 130856.1 131811.3 132769.3 133729.9
 G, KJ/KG       -377195.1-378328.7-379464.5-380602.7-381743.1-382885.8-384030.9-385178.2
 S, KJ/(KG)(K)   113.2415 113.4702 113.6991 113.9284 114.1579 114.3876 114.6176 114.8477

 M, (1/n)           1.513    1.509    1.505    1.501    1.496    1.492    1.488    1.484
 (dLV/dLP)t      -1.11088 -1.11151 -1.11212 -1.11273 -1.11332 -1.11390 -1.11446 -1.11502
 (dLV/dLT)p        2.3231   2.3278   2.3323   2.3367   2.3409   2.3449   2.3488   2.3525
 Cp, KJ/(KG)(K)  106.9303 107.3081 107.6765 108.0354 108.3846 108.7240 109.0534 109.3727
 GAMMAs            1.1996   1.2000   1.2005   1.2009   1.2013   1.2018   1.2022   1.2027
 SON VEL,M/SEC     5553.6   5568.4   5583.2   5598.1   5613.0   5628.0   5643.1   5658.1

 TRANSPORT PROPERTIES (GASES ONLY)
   CONDUCTIVITY IN UNITS OF MILLIWATTS/(CM)(K)

 VISC,MILLIPOISE  0.74848  0.74955  0.75061  0.75164  0.75265  0.75363  0.75460  0.75554

  WITH EQUILIBRIUM REACTIONS

 Cp, KJ/(KG)(K)  106.9303 107.3081 107.6765 108.0354 108.3846 108.7240 109.0534 109.3727
 CONDUCTIVITY    143.9092 144.3433 144.7620 145.1649 145.5519 145.9230 146.2779 146.6165
 PRANDTL NUMBER    0.5561   0.5572   0.5583   0.5594   0.5605   0.5615   0.5626   0.5636

  WITH FROZEN REACTIONS

 Cp, KJ/(KG)(K)   20.1940  20.2019  20.2097  20.2175  20.2252  20.2328  20.2404  20.2479
 CONDUCTIVITY     21.0203  21.0490  21.0771  21.1046  21.1314  21.1577  21.1833  21.2083
 PRANDTL NUMBER    0.7190   0.7194   0.7197   0.7200   0.7204   0.7207   0.7210   0.7213

 MOLE FRACTIONS

 *H               0.49845  0.50270  0.50693  0.51116  0.51538  0.51960  0.52380  0.52800
 *H2              0.50155  0.49730  0.49307  0.48884  0.48462  0.48040  0.47620  0.47200

  * THERMODYNAMIC PROPERTIES FITTED TO 20000.K

 NOTE. WEIGHT FRACTION OF FUEL IN TOTAL FUELS AND OF OXIDANT IN TOTAL OXIDANTS









               THERMODYNAMIC EQUILIBRIUM PROPERTIES AT ASSIGNED

                           TEMPERATURE AND PRESSURE

 CASE =                

             REACTANT                    WT FRACTION      ENERGY      TEMP
                                          (SEE NOTE)     KJ/KG-MOL      K  
             H2                           1.0000000         0.000      0.000

 O/F=    0.00000  %FUEL=100.000000  R,EQ.RATIO= 0.000000  PHI,EQ.RATIO= 0.000000

 THERMODYNAMIC PROPERTIES

 P, BAR            39.000   39.000   39.000   39.000   44.000   44.000   44.000   44.000
 T, K             4760.00  4770.00  4780.00  4790.00  4650.00  4660.00  4670.00  4680.00
 RHO, KG/CU M    1.4579-1 1.4507-1 1.4435-1 1.4364-1 1.7597-1 1.7511-1 1.7426-1 1.7341-1
 H, KJ/KG        161443.8 162542.2 163643.4 164747.5 145671.3 146694.9 147722.8 148754.8
 U, KJ/KG        134693.0 135658.6 136626.6 137596.9 120666.8 121568.1 122472.9 123381.3
 G, KJ/KG       -386327.8-387479.7-388634.0-389790.5-370772.4-371884.1-372998.1-374114.2
 S, KJ/(KG)(K)   115.0781 115.3086 115.5392 115.7699 111.0632 111.2831 111.5034 111.7241

 M, (1/n)           1.479    1.475    1.471    1.467    1.546    1.542    1.538    1.534
 (dLV/dLP)t      -1.11556 -1.11608 -1.11660 -1.11710 -1.10574 -1.10644 -1.10712 -1.10780
 (dLV/dLT)p        2.3560   2.3594   2.3626   2.3656   2.2698   2.2755   2.2809   2.2863
 Cp, KJ/(KG)(K)  109.6816 109.9801 110.2680 110.5452 102.1566 102.5788 102.9936 103.4006
 GAMMAs            1.2032   1.2036   1.2041   1.2046   1.1983   1.1986   1.1990   1.1994
 SON VEL,M/SEC     5673.2   5688.4   5703.6   5718.8   5473.7   5488.0   5502.3   5516.7

 TRANSPORT PROPERTIES (GASES ONLY)
   CONDUCTIVITY IN UNITS OF MILLIWATTS/(CM)(K)

 VISC,MILLIPOISE  0.75646  0.75735  0.75823  0.75908  0.74584  0.74708  0.74830  0.74950

  WITH EQUILIBRIUM REACTIONS

 Cp, KJ/(KG)(K)  109.6816 109.9801 110.2680 110.5452 102.1566 102.5788 102.9936 103.4006
 CONDUCTIVITY    146.9386 147.2443 147.5333 147.8055 138.9998 139.5280 140.0428 140.5439
 PRANDTL NUMBER    0.5647   0.5657   0.5667   0.5677   0.5481   0.5492   0.5503   0.5514

  WITH FROZEN REACTIONS

 Cp, KJ/(KG)(K)   20.2553  20.2627  20.2700  20.2773  20.1586  20.1667  20.1747  20.1828
 CONDUCTIVITY     21.2328  21.2566  21.2798  21.3025  20.9763  21.0097  21.0425  21.0746
 PRANDTL NUMBER    0.7216   0.7219   0.7222   0.7225   0.7168   0.7171   0.7174   0.7178

 MOLE FRACTIONS

 *H               0.53218  0.53636  0.54053  0.54468  0.46596  0.47015  0.47433  0.47852
 *H2              0.46782  0.46364  0.45947  0.45532  0.53404  0.52985  0.52567  0.52148

  * THERMODYNAMIC PROPERTIES FITTED TO 20000.K

 NOTE. WEIGHT FRACTION OF FUEL IN TOTAL FUELS AND OF OXIDANT IN TOTAL OXIDANTS









               THERMODYNAMIC EQUILIBRIUM PROPERTIES AT ASSIGNED

                           TEMPERATURE AND PRESSURE

 CASE =                

             REACTANT                    WT FRACTION      ENERGY      TEMP
                                          (SEE NOTE)     KJ/KG-MOL      K  
             H2                           1.0000000         0.000      0.000

 O/F=    0.00000  %FUEL=100.000000  R,EQ.RATIO= 0.000000  PHI,EQ.RATIO= 0.000000

 THERMODYNAMIC PROPERTIES

 P, BAR            44.000   44.000   44.000   44.000   44.000   44.000   44.000   44.000
 T, K             4690.00  4700.00  4710.00  4720.00  4730.00  4740.00  4750.00  4760.00
 RHO, KG/CU M    1.7256-1 1.7172-1 1.7089-1 1.7005-1 1.6922-1 1.6840-1 1.6758-1 1.6676-1
 H, KJ/KG        149790.8 150830.8 151874.6 152922.2 153973.5 155028.5 156086.9 157148.8
 U, KJ/KG        124293.0 125208.1 126126.4 127047.9 127972.5 128900.1 129830.6 130764.0
 G, KJ/KG       -375232.5-376353.1-377475.9-378600.9-379728.1-380857.5-381989.2-383123.1
 S, KJ/(KG)(K)   111.9453 112.1668 112.3886 112.6108 112.8333 113.0561 113.2792 113.5025

 M, (1/n)           1.529    1.525    1.521    1.517    1.513    1.508    1.504    1.500
 (dLV/dLP)t      -1.10846 -1.10912 -1.10976 -1.11040 -1.11102 -1.11163 -1.11223 -1.11282
 (dLV/dLT)p        2.2915   2.2966   2.3015   2.3063   2.3109   2.3154   2.3197   2.3239
 Cp, KJ/(KG)(K)  103.7997 104.1908 104.5736 104.9481 105.3140 105.6713 106.0196 106.3590
 GAMMAs            1.1999   1.2003   1.2007   1.2011   1.2015   1.2020   1.2024   1.2028
 SON VEL,M/SEC     5531.2   5545.6   5560.2   5574.7   5589.4   5604.1   5618.8   5633.5

 TRANSPORT PROPERTIES (GASES ONLY)
   CONDUCTIVITY IN UNITS OF MILLIWATTS/(CM)(K)

 VISC,MILLIPOISE  0.75068  0.75183  0.75297  0.75409  0.75518  0.75625  0.75731  0.75834

  WITH EQUILIBRIUM REACTIONS

 Cp, KJ/(KG)(K)  103.7997 104.1908 104.5736 104.9481 105.3140 105.6713 106.0196 106.3590
 CONDUCTIVITY    141.0312 141.5044 141.9635 142.4081 142.8382 143.2537 143.6543 144.0399
 PRANDTL NUMBER    0.5525   0.5536   0.5547   0.5557   0.5568   0.5579   0.5589   0.5600

  WITH FROZEN REACTIONS

 Cp, KJ/(KG)(K)   20.1907  20.1986  20.2064  20.2142  20.2219  20.2295  20.2371  20.2446
 CONDUCTIVITY     21.1062  21.1371  21.1675  21.1973  21.2264  21.2550  21.2829  21.3103
 PRANDTL NUMBER    0.7181   0.7185   0.7188   0.7191   0.7194   0.7198   0.7201   0.7204

 MOLE FRACTIONS

 *H               0.48270  0.48687  0.49104  0.49521  0.49937  0.50353  0.50768  0.51182
 *H2              0.51730  0.51313  0.50896  0.50479  0.50063  0.49647  0.49232  0.48818

  * THERMODYNAMIC PROPERTIES FITTED TO 20000.K

 NOTE. WEIGHT FRACTION OF FUEL IN TOTAL FUELS AND OF OXIDANT IN TOTAL OXIDANTS









               THERMODYNAMIC EQUILIBRIUM PROPERTIES AT ASSIGNED

                           TEMPERATURE AND PRESSURE

 CASE =                

             REACTANT                    WT FRACTION      ENERGY      TEMP
                                          (SEE NOTE)     KJ/KG-MOL      K  
             H2                           1.0000000         0.000      0.000

 O/F=    0.00000  %FUEL=100.000000  R,EQ.RATIO= 0.000000  PHI,EQ.RATIO= 0.000000

 THERMODYNAMIC PROPERTIES

 P, BAR            44.000   44.000   44.000   49.000   49.000   49.000   49.000   49.000
 T, K             4770.00  4780.00  4790.00  4650.00  4660.00  4670.00  4680.00  4690.00
 RHO, KG/CU M    1.6595-1 1.6514-1 1.6434-1 1.9818-1 1.9723-1 1.9628-1 1.9534-1 1.9440-1
 H, KJ/KG        158214.1 159282.6 160354.2 142320.3 143312.1 144308.1 145308.5 146312.9
 U, KJ/KG        131700.1 132639.0 133580.4 117594.9 118467.5 119343.8 120223.8 121107.2
 G, KJ/KG       -384259.3-385397.6-386538.3-368096.3-369195.0-370295.9-371398.9-372504.0
 S, KJ/(KG)(K)   113.7261 113.9498 114.1738 109.7670 109.9801 110.1936 110.4075 110.6219

 M, (1/n)           1.496    1.492    1.488    1.564    1.560    1.555    1.551    1.547
 (dLV/dLP)t      -1.11340 -1.11396 -1.11452 -1.10278 -1.10350 -1.10421 -1.10491 -1.10560
 (dLV/dLT)p        2.3279   2.3318   2.3355   2.2343   2.2402   2.2461   2.2518   2.2575
 Cp, KJ/(KG)(K)  106.6892 107.0100 107.3215  98.9611  99.3940  99.8204 100.2401 100.6529
 GAMMAs            1.2033   1.2037   1.2042   1.1982   1.1986   1.1990   1.1994   1.1998
 SON VEL,M/SEC     5648.3   5663.2   5678.1   5443.1   5457.0   5471.0   5485.1   5499.2

 TRANSPORT PROPERTIES (GASES ONLY)
   CONDUCTIVITY IN UNITS OF MILLIWATTS/(CM)(K)

 VISC,MILLIPOISE  0.75934  0.76033  0.76129  0.74611  0.74744  0.74874  0.75002  0.75129

  WITH EQUILIBRIUM REACTIONS

 Cp, KJ/(KG)(K)  106.6892 107.0100 107.3215  98.9611  99.3940  99.8204 100.2401 100.6529
 CONDUCTIVITY    144.4103 144.7655 145.1053 135.7254 136.2898 136.8421 137.3820 137.9094
 PRANDTL NUMBER    0.5610   0.5620   0.5631   0.5440   0.5451   0.5462   0.5473   0.5483

  WITH FROZEN REACTIONS

 Cp, KJ/(KG)(K)   20.2520  20.2594  20.2668  20.1489  20.1570  20.1651  20.1732  20.1811
 CONDUCTIVITY     21.3370  21.3632  21.3887  21.0071  21.0429  21.0781  21.1127  21.1468
 PRANDTL NUMBER    0.7207   0.7210   0.7214   0.7156   0.7160   0.7163   0.7166   0.7170

 MOLE FRACTIONS

 *H               0.51596  0.52008  0.52420  0.44865  0.45276  0.45688  0.46100  0.46511
 *H2              0.48404  0.47992  0.47580  0.55135  0.54724  0.54312  0.53900  0.53489

  * THERMODYNAMIC PROPERTIES FITTED TO 20000.K

 NOTE. WEIGHT FRACTION OF FUEL IN TOTAL FUELS AND OF OXIDANT IN TOTAL OXIDANTS









               THERMODYNAMIC EQUILIBRIUM PROPERTIES AT ASSIGNED

                           TEMPERATURE AND PRESSURE

 CASE =                

             REACTANT                    WT FRACTION      ENERGY      TEMP
                                          (SEE NOTE)     KJ/KG-MOL      K  
             H2                           1.0000000         0.000      0.000

 O/F=    0.00000  %FUEL=100.000000  R,EQ.RATIO= 0.000000  PHI,EQ.RATIO= 0.000000

 THERMODYNAMIC PROPERTIES

 P, BAR            49.000   49.000   49.000   49.000   49.000   49.000   49.000   49.000
 T, K             4700.00  4710.00  4720.00  4730.00  4740.00  4750.00  4760.00  4770.00
 RHO, KG/CU M    1.9347-1 1.9254-1 1.9161-1 1.9069-1 1.8978-1 1.8886-1 1.8796-1 1.8705-1
 H, KJ/KG        147321.5 148334.1 149350.6 150371.0 151395.2 152423.2 153454.8 154489.9
 U, KJ/KG        121994.1 122884.5 123778.2 124675.1 125575.2 126478.5 127384.7 128294.0
 G, KJ/KG       -373611.3-374720.7-375832.3-376946.1-378062.0-379180.1-380300.3-381422.8
 S, KJ/(KG)(K)   110.8368 111.0520 111.2676 111.4835 111.6998 111.9165 112.1334 112.3507

 M, (1/n)           1.543    1.539    1.535    1.530    1.526    1.522    1.518    1.514
 (dLV/dLP)t      -1.10628 -1.10696 -1.10763 -1.10828 -1.10893 -1.10956 -1.11019 -1.11080
 (dLV/dLT)p        2.2629   2.2683   2.2735   2.2786   2.2835   2.2884   2.2930   2.2976
 Cp, KJ/(KG)(K)  101.0588 101.4575 101.8488 102.2327 102.6090 102.9774 103.3379 103.6904
 GAMMAs            1.2002   1.2006   1.2010   1.2014   1.2018   1.2022   1.2026   1.2030
 SON VEL,M/SEC     5513.3   5527.5   5541.8   5556.1   5570.5   5584.9   5599.3   5613.8

 TRANSPORT PROPERTIES (GASES ONLY)
   CONDUCTIVITY IN UNITS OF MILLIWATTS/(CM)(K)

 VISC,MILLIPOISE  0.75253  0.75376  0.75496  0.75615  0.75731  0.75845  0.75958  0.76068

  WITH EQUILIBRIUM REACTIONS

 Cp, KJ/(KG)(K)  101.0588 101.4575 101.8488 102.2327 102.6090 102.9774 103.3379 103.6904
 CONDUCTIVITY    138.4241 138.9260 139.4148 139.8903 140.3525 140.8011 141.2359 141.6569
 PRANDTL NUMBER    0.5494   0.5505   0.5515   0.5526   0.5537   0.5547   0.5558   0.5568

  WITH FROZEN REACTIONS

 Cp, KJ/(KG)(K)   20.1891  20.1969  20.2047  20.2125  20.2202  20.2278  20.2354  20.2429
 CONDUCTIVITY     21.1802  21.2131  21.2454  21.2770  21.3081  21.3386  21.3685  21.3979
 PRANDTL NUMBER    0.7173   0.7177   0.7180   0.7183   0.7186   0.7190   0.7193   0.7196

 MOLE FRACTIONS

 *H               0.46923  0.47334  0.47745  0.48156  0.48566  0.48976  0.49385  0.49794
 *H2              0.53077  0.52666  0.52255  0.51844  0.51434  0.51024  0.50615  0.50206

  * THERMODYNAMIC PROPERTIES FITTED TO 20000.K

 NOTE. WEIGHT FRACTION OF FUEL IN TOTAL FUELS AND OF OXIDANT IN TOTAL OXIDANTS









               THERMODYNAMIC EQUILIBRIUM PROPERTIES AT ASSIGNED

                           TEMPERATURE AND PRESSURE

 CASE =                

             REACTANT                    WT FRACTION      ENERGY      TEMP
                                          (SEE NOTE)     KJ/KG-MOL      K  
             H2                           1.0000000         0.000      0.000

 O/F=    0.00000  %FUEL=100.000000  R,EQ.RATIO= 0.000000  PHI,EQ.RATIO= 0.000000

 THERMODYNAMIC PROPERTIES

 P, BAR            49.000   49.000   54.000   54.000   54.000   54.000   54.000   54.000
 T, K             4780.00  4790.00  4650.00  4660.00  4670.00  4680.00  4690.00  4700.00
 RHO, KG/CU M    1.8615-1 1.8526-1 2.2056-1 2.1952-1 2.1848-1 2.1745-1 2.1642-1 2.1539-1
 H, KJ/KG        155528.5 156570.6 139408.9 140372.1 141339.6 142311.4 143287.5 144267.7
 U, KJ/KG        129206.2 130121.2 114925.9 115772.8 116623.5 117477.9 118335.8 119197.4
 G, KJ/KG       -382547.4-383674.1-365705.7-366793.0-367882.4-368973.8-370067.3-371163.0
 S, KJ/(KG)(K)   112.5682 112.7860 108.6268 108.8337 109.0411 109.2490 109.4573 109.6661

 M, (1/n)           1.510    1.506    1.579    1.575    1.571    1.567    1.563    1.559
 (dLV/dLP)t      -1.11141 -1.11200 -1.10004 -1.10077 -1.10150 -1.10222 -1.10293 -1.10363
 (dLV/dLT)p        2.3019   2.3062   2.2013   2.2075   2.2137   2.2197   2.2256   2.2314
 Cp, KJ/(KG)(K)  104.0346 104.3704  96.0959  96.5348  96.9680  97.3953  97.8167  98.2319
 GAMMAs            1.2035   1.2039   1.1983   1.1986   1.1990   1.1994   1.1997   1.2001
 SON VEL,M/SEC     5628.4   5642.9   5416.4   5430.0   5443.8   5457.5   5471.3   5485.2

 TRANSPORT PROPERTIES (GASES ONLY)
   CONDUCTIVITY IN UNITS OF MILLIWATTS/(CM)(K)

 VISC,MILLIPOISE  0.76176  0.76282  0.74609  0.74748  0.74885  0.75021  0.75154  0.75286

  WITH EQUILIBRIUM REACTIONS

 Cp, KJ/(KG)(K)  104.0346 104.3704  96.0959  96.5348  96.9680  97.3953  97.8167  98.2319
 CONDUCTIVITY    142.0639 142.4567 132.6819 133.2736 133.8542 134.4237 134.9819 135.5285
 PRANDTL NUMBER    0.5578   0.5589   0.5404   0.5414   0.5425   0.5436   0.5446   0.5457

  WITH FROZEN REACTIONS

 Cp, KJ/(KG)(K)   20.2503  20.2577  20.1404  20.1486  20.1567  20.1648  20.1728  20.1808
 CONDUCTIVITY     21.4266  21.4548  21.0271  21.0650  21.1023  21.1391  21.1752  21.2109
 PRANDTL NUMBER    0.7199   0.7203   0.7146   0.7150   0.7153   0.7156   0.7160   0.7163

 MOLE FRACTIONS

 *H               0.50202  0.50610  0.43328  0.43733  0.44138  0.44543  0.44948  0.45354
 *H2              0.49798  0.49390  0.56672  0.56267  0.55862  0.55457  0.55052  0.54646

  * THERMODYNAMIC PROPERTIES FITTED TO 20000.K

 NOTE. WEIGHT FRACTION OF FUEL IN TOTAL FUELS AND OF OXIDANT IN TOTAL OXIDANTS









               THERMODYNAMIC EQUILIBRIUM PROPERTIES AT ASSIGNED

                           TEMPERATURE AND PRESSURE

 CASE =                

             REACTANT                    WT FRACTION      ENERGY      TEMP
                                          (SEE NOTE)     KJ/KG-MOL      K  
             H2                           1.0000000         0.000      0.000

 O/F=    0.00000  %FUEL=100.000000  R,EQ.RATIO= 0.000000  PHI,EQ.RATIO= 0.000000

 THERMODYNAMIC PROPERTIES

 P, BAR            54.000   54.000   54.000   54.000   54.000   54.000   54.000   54.000
 T, K             4710.00  4720.00  4730.00  4740.00  4750.00  4760.00  4770.00  4780.00
 RHO, KG/CU M    2.1437-1 2.1336-1 2.1235-1 2.1134-1 2.1034-1 2.0934-1 2.0835-1 2.0736-1
 H, KJ/KG        145252.1 146240.5 147232.9 148229.3 149229.5 150233.5 151241.2 152252.5
 U, KJ/KG        120062.4 120930.9 121802.7 122677.9 123556.3 124438.0 125322.7 126210.5
 G, KJ/KG       -372260.7-373360.5-374462.4-375566.4-376672.5-377780.7-378891.0-380003.5
 S, KJ/(KG)(K)   109.8753 110.0850 110.2950 110.5054 110.7162 110.9273 111.1388 111.3506

 M, (1/n)           1.555    1.551    1.546    1.542    1.538    1.534    1.530    1.526
 (dLV/dLP)t      -1.10433 -1.10502 -1.10570 -1.10637 -1.10703 -1.10769 -1.10833 -1.10896
 (dLV/dLT)p        2.2371   2.2427   2.2481   2.2534   2.2586   2.2636   2.2686   2.2734
 Cp, KJ/(KG)(K)   98.6409  99.0434  99.4393  99.8285 100.2108 100.5860 100.9541 101.3149
 GAMMAs            1.2005   1.2009   1.2013   1.2017   1.2021   1.2025   1.2029   1.2033
 SON VEL,M/SEC     5499.1   5513.1   5527.1   5541.1   5555.3   5569.4   5583.6   5597.9

 TRANSPORT PROPERTIES (GASES ONLY)
   CONDUCTIVITY IN UNITS OF MILLIWATTS/(CM)(K)

 VISC,MILLIPOISE  0.75416  0.75544  0.75670  0.75794  0.75916  0.76037  0.76155  0.76271

  WITH EQUILIBRIUM REACTIONS

 Cp, KJ/(KG)(K)   98.6409  99.0434  99.4393  99.8285 100.2108 100.5860 100.9541 101.3149
 CONDUCTIVITY    136.0633 136.5863 137.0972 137.5958 138.0820 138.5557 139.0165 139.4645
 PRANDTL NUMBER    0.5467   0.5478   0.5488   0.5499   0.5510   0.5520   0.5530   0.5541

  WITH FROZEN REACTIONS

 Cp, KJ/(KG)(K)   20.1887  20.1965  20.2043  20.2120  20.2197  20.2273  20.2349  20.2424
 CONDUCTIVITY     21.2459  21.2804  21.3143  21.3476  21.3803  21.4125  21.4441  21.4751
 PRANDTL NUMBER    0.7166   0.7170   0.7173   0.7176   0.7180   0.7183   0.7186   0.7189

 MOLE FRACTIONS

 *H               0.45759  0.46164  0.46569  0.46974  0.47378  0.47782  0.48186  0.48590
 *H2              0.54241  0.53836  0.53431  0.53026  0.52622  0.52218  0.51814  0.51410

  * THERMODYNAMIC PROPERTIES FITTED TO 20000.K

 NOTE. WEIGHT FRACTION OF FUEL IN TOTAL FUELS AND OF OXIDANT IN TOTAL OXIDANTS









               THERMODYNAMIC EQUILIBRIUM PROPERTIES AT ASSIGNED

                           TEMPERATURE AND PRESSURE

 CASE =                

             REACTANT                    WT FRACTION      ENERGY      TEMP
                                          (SEE NOTE)     KJ/KG-MOL      K  
             H2                           1.0000000         0.000      0.000

 O/F=    0.00000  %FUEL=100.000000  R,EQ.RATIO= 0.000000  PHI,EQ.RATIO= 0.000000

 THERMODYNAMIC PROPERTIES

 P, BAR            54.000
 T, K             4790.00
 RHO, KG/CU M    2.0637-1
 H, KJ/KG        153267.4
 U, KJ/KG        127101.3
 G, KJ/KG       -381118.0
 S, KJ/(KG)(K)   111.5627

 M, (1/n)           1.522
 (dLV/dLP)t      -1.10959
 (dLV/dLT)p        2.2780
 Cp, KJ/(KG)(K)  101.6682
 GAMMAs            1.2037
 SON VEL,M/SEC     5612.2

 TRANSPORT PROPERTIES (GASES ONLY)
   CONDUCTIVITY IN UNITS OF MILLIWATTS/(CM)(K)

 VISC,MILLIPOISE  0.76385

  WITH EQUILIBRIUM REACTIONS

 Cp, KJ/(KG)(K)  101.6682
 CONDUCTIVITY    139.8994
 PRANDTL NUMBER    0.5551

  WITH FROZEN REACTIONS

 Cp, KJ/(KG)(K)   20.2498
 CONDUCTIVITY     21.5056
 PRANDTL NUMBER    0.7193

 MOLE FRACTIONS

 *H               0.48993
 *H2              0.51007

  * THERMODYNAMIC PROPERTIES FITTED TO 20000.K

 NOTE. WEIGHT FRACTION OF FUEL IN TOTAL FUELS AND OF OXIDANT IN TOTAL OXIDANTS



  
