
 *******************************************************************************

         NASA-GLENN CHEMICAL EQUILIBRIUM PROGRAM CEA2, MAY 21, 2004
                   BY  BONNIE MCBRIDE AND SANFORD GORDON
      REFS: NASA RP-1311, PART I, 1994 AND NASA RP-1311, PART II, 1996

 *******************************************************************************



  prob tp ions
  p,bar= 2.5,2.8,3.1,3.5,3.9,4.4,4.9,5.4,6.0,6.7,7.4,8.25,9.1,10.0,11.0
  t,k= 1050,1060,1070,1080,1090,1100,1110,1120,1130,1140,1150,1160,1170,1180,1190
  
  reac
  na H2                wt%=100.0000
  
  output short
  output siunits
  output transport
  
 end





               THERMODYNAMIC EQUILIBRIUM PROPERTIES AT ASSIGNED

                           TEMPERATURE AND PRESSURE

 CASE =                

             REACTANT                    WT FRACTION      ENERGY      TEMP
                                          (SEE NOTE)     KJ/KG-MOL      K  
             H2                           1.0000000         0.000      0.000

 O/F=    0.00000  %FUEL=100.000000  R,EQ.RATIO= 0.000000  PHI,EQ.RATIO= 0.000000

 THERMODYNAMIC PROPERTIES

 P, BAR            2.5000   2.5000   2.5000   2.5000   2.5000   2.5000   2.5000   2.5000
 T, K             1050.00  1060.00  1070.00  1080.00  1090.00  1100.00  1110.00  1120.00
 RHO, KG/CU M    5.7727-2 5.7183-2 5.6648-2 5.6124-2 5.5609-2 5.5103-2 5.4607-2 5.4119-2
 H, KJ/KG         11009.4  11160.1  11311.1  11462.2  11613.6  11765.1  11916.9  12068.8
 U, KJ/KG         6678.64  6788.17  6897.89  7007.80  7117.90  7228.19  7338.67  7449.36
 G, KJ/KG        -72368.8 -73163.4 -73959.6 -74757.2 -75556.2 -76356.6 -77158.4 -77961.5
 S, KJ/(KG)(K)    79.4077  79.5505  79.6922  79.8328  79.9723  80.1106  80.2480  80.3842

 M, (1/n)           2.016    2.016    2.016    2.016    2.016    2.016    2.016    2.016
 (dLV/dLP)t      -1.00000 -1.00000 -1.00000 -1.00000 -1.00000 -1.00000 -1.00000 -1.00000
 (dLV/dLT)p        1.0000   1.0000   1.0000   1.0000   1.0000   1.0000   1.0000   1.0000
 Cp, KJ/(KG)(K)   15.0691  15.0873  15.1058  15.1247  15.1439  15.1633  15.1830  15.2030
 GAMMAs            1.3769   1.3762   1.3756   1.3750   1.3743   1.3736   1.3730   1.3723
 SON VEL,M/SEC     2441.9   2452.9   2463.9   2474.8   2485.6   2496.4   2507.1   2517.8

 TRANSPORT PROPERTIES (GASES ONLY)
   CONDUCTIVITY IN UNITS OF MILLIWATTS/(CM)(K)

 VISC,MILLIPOISE  0.21277  0.21419  0.21560  0.21701  0.21841  0.21980  0.22120  0.22258

  WITH EQUILIBRIUM REACTIONS

 Cp, KJ/(KG)(K)   15.0691  15.0873  15.1058  15.1247  15.1439  15.1633  15.1830  15.2030
 CONDUCTIVITY      4.6142   4.6493   4.6845   4.7198   4.7551   4.7905   4.8259   4.8614
 PRANDTL NUMBER    0.6949   0.6950   0.6952   0.6954   0.6956   0.6957   0.6959   0.6961

  WITH FROZEN REACTIONS

 Cp, KJ/(KG)(K)   15.0691  15.0873  15.1058  15.1247  15.1438  15.1633  15.1830  15.2029
 CONDUCTIVITY      4.6142   4.6493   4.6845   4.7198   4.7551   4.7905   4.8259   4.8614
 PRANDTL NUMBER    0.6949   0.6950   0.6952   0.6954   0.6956   0.6957   0.6959   0.6961

 MOLE FRACTIONS

 *H2              1.00000  1.00000  1.00000  1.00000  1.00000  1.00000  1.00000  1.00000

  * THERMODYNAMIC PROPERTIES FITTED TO 20000.K

 NOTE. WEIGHT FRACTION OF FUEL IN TOTAL FUELS AND OF OXIDANT IN TOTAL OXIDANTS









               THERMODYNAMIC EQUILIBRIUM PROPERTIES AT ASSIGNED

                           TEMPERATURE AND PRESSURE

 CASE =                

             REACTANT                    WT FRACTION      ENERGY      TEMP
                                          (SEE NOTE)     KJ/KG-MOL      K  
             H2                           1.0000000         0.000      0.000

 O/F=    0.00000  %FUEL=100.000000  R,EQ.RATIO= 0.000000  PHI,EQ.RATIO= 0.000000

 THERMODYNAMIC PROPERTIES

 P, BAR            2.5000   2.5000   2.5000   2.5000   2.5000   2.5000   2.5000   2.8000
 T, K             1130.00  1140.00  1150.00  1160.00  1170.00  1180.00  1190.00  1050.00
 RHO, KG/CU M    5.3640-2 5.3170-2 5.2707-2 5.2253-2 5.1807-2 5.1367-2 5.0936-2 6.4654-2
 H, KJ/KG         12220.9  12373.2  12525.8  12678.5  12831.5  12984.6  13138.0  11009.4
 U, KJ/KG         7560.24  7671.33  7782.63  7894.13  8005.83  8117.75  8229.88  6678.63
 G, KJ/KG        -78766.1 -79571.9 -80379.1 -81187.7 -81997.5 -82808.7 -83621.1 -71877.8
 S, KJ/(KG)(K)    80.5194  80.6537  80.7869  80.9191  81.0504  81.1808  81.3102  78.9402

 M, (1/n)           2.016    2.016    2.016    2.016    2.016    2.016    2.016    2.016
 (dLV/dLP)t      -1.00000 -1.00000 -1.00000 -1.00000 -1.00000 -1.00000 -1.00000 -1.00000
 (dLV/dLT)p        1.0000   1.0000   1.0000   1.0000   1.0000   1.0000   1.0000   1.0000
 Cp, KJ/(KG)(K)   15.2232  15.2436  15.2642  15.2849  15.3059  15.3270  15.3482  15.0691
 GAMMAs            1.3716   1.3709   1.3703   1.3696   1.3689   1.3682   1.3675   1.3769
 SON VEL,M/SEC     2528.4   2538.9   2549.4   2559.8   2570.2   2580.5   2590.7   2441.9

 TRANSPORT PROPERTIES (GASES ONLY)
   CONDUCTIVITY IN UNITS OF MILLIWATTS/(CM)(K)

 VISC,MILLIPOISE  0.22396  0.22534  0.22671  0.22808  0.22944  0.23080  0.23215  0.21277

  WITH EQUILIBRIUM REACTIONS

 Cp, KJ/(KG)(K)   15.2232  15.2436  15.2642  15.2849  15.3059  15.3270  15.3482  15.0691
 CONDUCTIVITY      4.8969   4.9324   4.9680   5.0037   5.0394   5.0751   5.1108   4.6141
 PRANDTL NUMBER    0.6962   0.6964   0.6966   0.6967   0.6969   0.6970   0.6972   0.6949

  WITH FROZEN REACTIONS

 Cp, KJ/(KG)(K)   15.2231  15.2435  15.2641  15.2848  15.3057  15.3268  15.3480  15.0691
 CONDUCTIVITY      4.8969   4.9324   4.9680   5.0036   5.0393   5.0750   5.1107   4.6141
 PRANDTL NUMBER    0.6962   0.6964   0.6966   0.6967   0.6969   0.6970   0.6972   0.6949

 MOLE FRACTIONS

 *H2              1.00000  1.00000  1.00000  1.00000  1.00000  1.00000  1.00000  1.00000

  * THERMODYNAMIC PROPERTIES FITTED TO 20000.K

 NOTE. WEIGHT FRACTION OF FUEL IN TOTAL FUELS AND OF OXIDANT IN TOTAL OXIDANTS









               THERMODYNAMIC EQUILIBRIUM PROPERTIES AT ASSIGNED

                           TEMPERATURE AND PRESSURE

 CASE =                

             REACTANT                    WT FRACTION      ENERGY      TEMP
                                          (SEE NOTE)     KJ/KG-MOL      K  
             H2                           1.0000000         0.000      0.000

 O/F=    0.00000  %FUEL=100.000000  R,EQ.RATIO= 0.000000  PHI,EQ.RATIO= 0.000000

 THERMODYNAMIC PROPERTIES

 P, BAR            2.8000   2.8000   2.8000   2.8000   2.8000   2.8000   2.8000   2.8000
 T, K             1060.00  1070.00  1080.00  1090.00  1100.00  1110.00  1120.00  1130.00
 RHO, KG/CU M    6.4045-2 6.3446-2 6.2859-2 6.2282-2 6.1716-2 6.1160-2 6.0614-2 6.0077-2
 H, KJ/KG         11160.1  11311.1  11462.2  11613.6  11765.1  11916.9  12068.8  12220.9
 U, KJ/KG         6788.17  6897.89  7007.80  7117.90  7228.19  7338.67  7449.36  7560.24
 G, KJ/KG        -72667.9 -73459.4 -74252.3 -75046.7 -75842.4 -76639.5 -77438.0 -78237.9
 S, KJ/(KG)(K)    79.0830  79.2248  79.3653  79.5048  79.6432  79.7805  79.9168  80.0520

 M, (1/n)           2.016    2.016    2.016    2.016    2.016    2.016    2.016    2.016
 (dLV/dLP)t      -1.00000 -1.00000 -1.00000 -1.00000 -1.00000 -1.00000 -1.00000 -1.00000
 (dLV/dLT)p        1.0000   1.0000   1.0000   1.0000   1.0000   1.0000   1.0000   1.0000
 Cp, KJ/(KG)(K)   15.0872  15.1058  15.1247  15.1438  15.1633  15.1830  15.2030  15.2232
 GAMMAs            1.3762   1.3756   1.3750   1.3743   1.3736   1.3730   1.3723   1.3716
 SON VEL,M/SEC     2452.9   2463.9   2474.8   2485.6   2496.4   2507.1   2517.8   2528.4

 TRANSPORT PROPERTIES (GASES ONLY)
   CONDUCTIVITY IN UNITS OF MILLIWATTS/(CM)(K)

 VISC,MILLIPOISE  0.21419  0.21560  0.21701  0.21841  0.21980  0.22120  0.22258  0.22396

  WITH EQUILIBRIUM REACTIONS

 Cp, KJ/(KG)(K)   15.0873  15.1058  15.1247  15.1438  15.1633  15.1830  15.2030  15.2232
 CONDUCTIVITY      4.6493   4.6845   4.7198   4.7551   4.7905   4.8259   4.8614   4.8969
 PRANDTL NUMBER    0.6951   0.6952   0.6954   0.6956   0.6957   0.6959   0.6961   0.6962

  WITH FROZEN REACTIONS

 Cp, KJ/(KG)(K)   15.0872  15.1058  15.1247  15.1438  15.1633  15.1830  15.2029  15.2231
 CONDUCTIVITY      4.6493   4.6845   4.7198   4.7551   4.7905   4.8259   4.8614   4.8969
 PRANDTL NUMBER    0.6951   0.6952   0.6954   0.6956   0.6957   0.6959   0.6961   0.6962

 MOLE FRACTIONS

 *H2              1.00000  1.00000  1.00000  1.00000  1.00000  1.00000  1.00000  1.00000

  * THERMODYNAMIC PROPERTIES FITTED TO 20000.K

 NOTE. WEIGHT FRACTION OF FUEL IN TOTAL FUELS AND OF OXIDANT IN TOTAL OXIDANTS









               THERMODYNAMIC EQUILIBRIUM PROPERTIES AT ASSIGNED

                           TEMPERATURE AND PRESSURE

 CASE =                

             REACTANT                    WT FRACTION      ENERGY      TEMP
                                          (SEE NOTE)     KJ/KG-MOL      K  
             H2                           1.0000000         0.000      0.000

 O/F=    0.00000  %FUEL=100.000000  R,EQ.RATIO= 0.000000  PHI,EQ.RATIO= 0.000000

 THERMODYNAMIC PROPERTIES

 P, BAR            2.8000   2.8000   2.8000   2.8000   2.8000   2.8000   3.1000   3.1000
 T, K             1140.00  1150.00  1160.00  1170.00  1180.00  1190.00  1050.00  1060.00
 RHO, KG/CU M    5.9550-2 5.9032-2 5.8523-2 5.8023-2 5.7532-2 5.7048-2 7.1582-2 7.0906-2
 H, KJ/KG         12373.2  12525.8  12678.5  12831.5  12984.6  13138.0  11009.4  11160.1
 U, KJ/KG         7671.33  7782.63  7894.13  8005.83  8117.75  8229.88  6678.63  6788.17
 G, KJ/KG        -79039.1 -79841.6 -80645.5 -81450.6 -82257.1 -83064.9 -71437.0 -72222.9
 S, KJ/(KG)(K)    80.1862  80.3195  80.4517  80.5830  80.7134  80.8428  78.5204  78.6632

 M, (1/n)           2.016    2.016    2.016    2.016    2.016    2.016    2.016    2.016
 (dLV/dLP)t      -1.00000 -1.00000 -1.00000 -1.00000 -1.00000 -1.00000 -1.00000 -1.00000
 (dLV/dLT)p        1.0000   1.0000   1.0000   1.0000   1.0000   1.0000   1.0000   1.0000
 Cp, KJ/(KG)(K)   15.2436  15.2642  15.2849  15.3059  15.3269  15.3482  15.0691  15.0872
 GAMMAs            1.3709   1.3703   1.3696   1.3689   1.3682   1.3675   1.3769   1.3762
 SON VEL,M/SEC     2538.9   2549.4   2559.8   2570.2   2580.5   2590.7   2441.9   2452.9

 TRANSPORT PROPERTIES (GASES ONLY)
   CONDUCTIVITY IN UNITS OF MILLIWATTS/(CM)(K)

 VISC,MILLIPOISE  0.22534  0.22671  0.22808  0.22944  0.23080  0.23215  0.21277  0.21419

  WITH EQUILIBRIUM REACTIONS

 Cp, KJ/(KG)(K)   15.2436  15.2642  15.2849  15.3059  15.3269  15.3482  15.0691  15.0873
 CONDUCTIVITY      4.9324   4.9680   5.0037   5.0394   5.0751   5.1108   4.6141   4.6493
 PRANDTL NUMBER    0.6964   0.6966   0.6967   0.6969   0.6970   0.6972   0.6949   0.6951

  WITH FROZEN REACTIONS

 Cp, KJ/(KG)(K)   15.2435  15.2641  15.2848  15.3057  15.3268  15.3480  15.0691  15.0872
 CONDUCTIVITY      4.9324   4.9680   5.0036   5.0393   5.0750   5.1107   4.6141   4.6493
 PRANDTL NUMBER    0.6964   0.6966   0.6967   0.6969   0.6970   0.6972   0.6949   0.6951

 MOLE FRACTIONS

 *H2              1.00000  1.00000  1.00000  1.00000  1.00000  1.00000  1.00000  1.00000

  * THERMODYNAMIC PROPERTIES FITTED TO 20000.K

 NOTE. WEIGHT FRACTION OF FUEL IN TOTAL FUELS AND OF OXIDANT IN TOTAL OXIDANTS









               THERMODYNAMIC EQUILIBRIUM PROPERTIES AT ASSIGNED

                           TEMPERATURE AND PRESSURE

 CASE =                

             REACTANT                    WT FRACTION      ENERGY      TEMP
                                          (SEE NOTE)     KJ/KG-MOL      K  
             H2                           1.0000000         0.000      0.000

 O/F=    0.00000  %FUEL=100.000000  R,EQ.RATIO= 0.000000  PHI,EQ.RATIO= 0.000000

 THERMODYNAMIC PROPERTIES

 P, BAR            3.1000   3.1000   3.1000   3.1000   3.1000   3.1000   3.1000   3.1000
 T, K             1070.00  1080.00  1090.00  1100.00  1110.00  1120.00  1130.00  1140.00
 RHO, KG/CU M    7.0244-2 6.9593-2 6.8955-2 6.8328-2 6.7712-2 6.7108-2 6.6514-2 6.5931-2
 H, KJ/KG         11311.1  11462.2  11613.6  11765.1  11916.9  12068.8  12220.9  12373.2
 U, KJ/KG         6897.89  7007.80  7117.90  7228.19  7338.67  7449.36  7560.24  7671.33
 G, KJ/KG        -73010.2 -73798.9 -74589.1 -75380.6 -76173.6 -76967.9 -77763.5 -78560.5
 S, KJ/(KG)(K)    78.8049  78.9455  79.0850  79.2234  79.3607  79.4970  79.6322  79.7664

 M, (1/n)           2.016    2.016    2.016    2.016    2.016    2.016    2.016    2.016
 (dLV/dLP)t      -1.00000 -1.00000 -1.00000 -1.00000 -1.00000 -1.00000 -1.00000 -1.00000
 (dLV/dLT)p        1.0000   1.0000   1.0000   1.0000   1.0000   1.0000   1.0000   1.0000
 Cp, KJ/(KG)(K)   15.1058  15.1247  15.1438  15.1633  15.1830  15.2030  15.2232  15.2436
 GAMMAs            1.3756   1.3750   1.3743   1.3736   1.3730   1.3723   1.3716   1.3709
 SON VEL,M/SEC     2463.9   2474.8   2485.6   2496.4   2507.1   2517.8   2528.4   2538.9

 TRANSPORT PROPERTIES (GASES ONLY)
   CONDUCTIVITY IN UNITS OF MILLIWATTS/(CM)(K)

 VISC,MILLIPOISE  0.21560  0.21701  0.21841  0.21980  0.22120  0.22258  0.22396  0.22534

  WITH EQUILIBRIUM REACTIONS

 Cp, KJ/(KG)(K)   15.1058  15.1247  15.1438  15.1633  15.1830  15.2030  15.2232  15.2436
 CONDUCTIVITY      4.6845   4.7198   4.7551   4.7905   4.8259   4.8614   4.8969   4.9324
 PRANDTL NUMBER    0.6952   0.6954   0.6956   0.6957   0.6959   0.6961   0.6962   0.6964

  WITH FROZEN REACTIONS

 Cp, KJ/(KG)(K)   15.1058  15.1247  15.1438  15.1633  15.1830  15.2029  15.2231  15.2435
 CONDUCTIVITY      4.6845   4.7198   4.7551   4.7905   4.8259   4.8614   4.8969   4.9324
 PRANDTL NUMBER    0.6952   0.6954   0.6956   0.6957   0.6959   0.6961   0.6962   0.6964

 MOLE FRACTIONS

 *H2              1.00000  1.00000  1.00000  1.00000  1.00000  1.00000  1.00000  1.00000

  * THERMODYNAMIC PROPERTIES FITTED TO 20000.K

 NOTE. WEIGHT FRACTION OF FUEL IN TOTAL FUELS AND OF OXIDANT IN TOTAL OXIDANTS









               THERMODYNAMIC EQUILIBRIUM PROPERTIES AT ASSIGNED

                           TEMPERATURE AND PRESSURE

 CASE =                

             REACTANT                    WT FRACTION      ENERGY      TEMP
                                          (SEE NOTE)     KJ/KG-MOL      K  
             H2                           1.0000000         0.000      0.000

 O/F=    0.00000  %FUEL=100.000000  R,EQ.RATIO= 0.000000  PHI,EQ.RATIO= 0.000000

 THERMODYNAMIC PROPERTIES

 P, BAR            3.1000   3.1000   3.1000   3.1000   3.1000   3.5000   3.5000   3.5000
 T, K             1150.00  1160.00  1170.00  1180.00  1190.00  1050.00  1060.00  1070.00
 RHO, KG/CU M    6.5357-2 6.4794-2 6.4240-2 6.3696-2 6.3160-2 8.0818-2 8.0056-2 7.9308-2
 H, KJ/KG         12525.8  12678.5  12831.5  12984.6  13138.0  11009.4  11160.1  11311.1
 U, KJ/KG         7782.62  7894.13  8005.83  8117.75  8229.88  6678.63  6788.17  6897.89
 G, KJ/KG        -79358.8 -80158.5 -80959.5 -81761.7 -82565.3 -70911.4 -71692.3 -72474.6
 S, KJ/(KG)(K)    79.8997  80.0319  80.1632  80.2936  80.4230  78.0198  78.1627  78.3044

 M, (1/n)           2.016    2.016    2.016    2.016    2.016    2.016    2.016    2.016
 (dLV/dLP)t      -1.00000 -1.00000 -1.00000 -1.00000 -1.00000 -1.00000 -1.00000 -1.00000
 (dLV/dLT)p        1.0000   1.0000   1.0000   1.0000   1.0000   1.0000   1.0000   1.0000
 Cp, KJ/(KG)(K)   15.2641  15.2849  15.3059  15.3269  15.3482  15.0691  15.0872  15.1058
 GAMMAs            1.3703   1.3696   1.3689   1.3682   1.3675   1.3769   1.3762   1.3756
 SON VEL,M/SEC     2549.4   2559.8   2570.2   2580.5   2590.7   2441.9   2452.9   2463.9

 TRANSPORT PROPERTIES (GASES ONLY)
   CONDUCTIVITY IN UNITS OF MILLIWATTS/(CM)(K)

 VISC,MILLIPOISE  0.22671  0.22808  0.22944  0.23080  0.23215  0.21277  0.21419  0.21560

  WITH EQUILIBRIUM REACTIONS

 Cp, KJ/(KG)(K)   15.2641  15.2849  15.3059  15.3269  15.3482  15.0691  15.0873  15.1058
 CONDUCTIVITY      4.9680   5.0037   5.0394   5.0751   5.1108   4.6141   4.6493   4.6845
 PRANDTL NUMBER    0.6966   0.6967   0.6969   0.6970   0.6972   0.6949   0.6951   0.6952

  WITH FROZEN REACTIONS

 Cp, KJ/(KG)(K)   15.2641  15.2848  15.3057  15.3268  15.3480  15.0691  15.0872  15.1058
 CONDUCTIVITY      4.9680   5.0036   5.0393   5.0750   5.1107   4.6141   4.6493   4.6845
 PRANDTL NUMBER    0.6966   0.6967   0.6969   0.6970   0.6972   0.6949   0.6951   0.6952

 MOLE FRACTIONS

 *H2              1.00000  1.00000  1.00000  1.00000  1.00000  1.00000  1.00000  1.00000

  * THERMODYNAMIC PROPERTIES FITTED TO 20000.K

 NOTE. WEIGHT FRACTION OF FUEL IN TOTAL FUELS AND OF OXIDANT IN TOTAL OXIDANTS









               THERMODYNAMIC EQUILIBRIUM PROPERTIES AT ASSIGNED

                           TEMPERATURE AND PRESSURE

 CASE =                

             REACTANT                    WT FRACTION      ENERGY      TEMP
                                          (SEE NOTE)     KJ/KG-MOL      K  
             H2                           1.0000000         0.000      0.000

 O/F=    0.00000  %FUEL=100.000000  R,EQ.RATIO= 0.000000  PHI,EQ.RATIO= 0.000000

 THERMODYNAMIC PROPERTIES

 P, BAR            3.5000   3.5000   3.5000   3.5000   3.5000   3.5000   3.5000   3.5000
 T, K             1080.00  1090.00  1100.00  1110.00  1120.00  1130.00  1140.00  1150.00
 RHO, KG/CU M    7.8573-2 7.7852-2 7.7145-2 7.6450-2 7.5767-2 7.5097-2 7.4438-2 7.3790-2
 H, KJ/KG         11462.2  11613.6  11765.1  11916.9  12068.8  12220.9  12373.2  12525.8
 U, KJ/KG         7007.80  7117.90  7228.19  7338.67  7449.36  7560.24  7671.33  7782.62
 G, KJ/KG        -73258.3 -74043.5 -74830.0 -75617.9 -76407.2 -77197.9 -77989.9 -78783.2
 S, KJ/(KG)(K)    78.4450  78.5845  78.7229  78.8602  78.9964  79.1317  79.2659  79.3991

 M, (1/n)           2.016    2.016    2.016    2.016    2.016    2.016    2.016    2.016
 (dLV/dLP)t      -1.00000 -1.00000 -1.00000 -1.00000 -1.00000 -1.00000 -1.00000 -1.00000
 (dLV/dLT)p        1.0000   1.0000   1.0000   1.0000   1.0000   1.0000   1.0000   1.0000
 Cp, KJ/(KG)(K)   15.1247  15.1438  15.1633  15.1830  15.2030  15.2232  15.2436  15.2641
 GAMMAs            1.3750   1.3743   1.3736   1.3730   1.3723   1.3716   1.3709   1.3703
 SON VEL,M/SEC     2474.8   2485.6   2496.4   2507.1   2517.8   2528.4   2538.9   2549.4

 TRANSPORT PROPERTIES (GASES ONLY)
   CONDUCTIVITY IN UNITS OF MILLIWATTS/(CM)(K)

 VISC,MILLIPOISE  0.21701  0.21841  0.21980  0.22120  0.22258  0.22396  0.22534  0.22671

  WITH EQUILIBRIUM REACTIONS

 Cp, KJ/(KG)(K)   15.1247  15.1438  15.1633  15.1830  15.2030  15.2232  15.2436  15.2641
 CONDUCTIVITY      4.7198   4.7551   4.7905   4.8259   4.8614   4.8969   4.9324   4.9680
 PRANDTL NUMBER    0.6954   0.6956   0.6957   0.6959   0.6961   0.6962   0.6964   0.6966

  WITH FROZEN REACTIONS

 Cp, KJ/(KG)(K)   15.1247  15.1438  15.1633  15.1830  15.2029  15.2231  15.2435  15.2641
 CONDUCTIVITY      4.7198   4.7551   4.7905   4.8259   4.8614   4.8969   4.9324   4.9680
 PRANDTL NUMBER    0.6954   0.6956   0.6957   0.6959   0.6961   0.6962   0.6964   0.6966

 MOLE FRACTIONS

 *H2              1.00000  1.00000  1.00000  1.00000  1.00000  1.00000  1.00000  1.00000

  * THERMODYNAMIC PROPERTIES FITTED TO 20000.K

 NOTE. WEIGHT FRACTION OF FUEL IN TOTAL FUELS AND OF OXIDANT IN TOTAL OXIDANTS









               THERMODYNAMIC EQUILIBRIUM PROPERTIES AT ASSIGNED

                           TEMPERATURE AND PRESSURE

 CASE =                

             REACTANT                    WT FRACTION      ENERGY      TEMP
                                          (SEE NOTE)     KJ/KG-MOL      K  
             H2                           1.0000000         0.000      0.000

 O/F=    0.00000  %FUEL=100.000000  R,EQ.RATIO= 0.000000  PHI,EQ.RATIO= 0.000000

 THERMODYNAMIC PROPERTIES

 P, BAR            3.5000   3.5000   3.5000   3.5000   3.9000   3.9000   3.9000   3.9000
 T, K             1160.00  1170.00  1180.00  1190.00  1050.00  1060.00  1070.00  1080.00
 RHO, KG/CU M    7.3154-2 7.2529-2 7.1914-2 7.1310-2 9.0054-2 8.9205-2 8.8371-2 8.7553-2
 H, KJ/KG         12678.5  12831.5  12984.6  13138.0  11009.4  11160.1  11311.1  11462.2
 U, KJ/KG         7894.12  8005.83  8117.75  8229.88  6678.63  6788.17  6897.89  7007.80
 G, KJ/KG        -79577.8 -80373.8 -81171.1 -81969.7 -70442.8 -71219.2 -71997.0 -72776.3
 S, KJ/(KG)(K)    79.5314  79.6626  79.7930  79.9224  77.5735  77.7163  77.8581  77.9987

 M, (1/n)           2.016    2.016    2.016    2.016    2.016    2.016    2.016    2.016
 (dLV/dLP)t      -1.00000 -1.00000 -1.00000 -1.00000 -1.00000 -1.00000 -1.00000 -1.00000
 (dLV/dLT)p        1.0000   1.0000   1.0000   1.0000   1.0000   1.0000   1.0000   1.0000
 Cp, KJ/(KG)(K)   15.2849  15.3058  15.3269  15.3482  15.0691  15.0872  15.1058  15.1247
 GAMMAs            1.3696   1.3689   1.3682   1.3675   1.3769   1.3762   1.3756   1.3750
 SON VEL,M/SEC     2559.8   2570.2   2580.5   2590.7   2441.9   2452.9   2463.9   2474.8

 TRANSPORT PROPERTIES (GASES ONLY)
   CONDUCTIVITY IN UNITS OF MILLIWATTS/(CM)(K)

 VISC,MILLIPOISE  0.22808  0.22944  0.23080  0.23215  0.21277  0.21419  0.21560  0.21701

  WITH EQUILIBRIUM REACTIONS

 Cp, KJ/(KG)(K)   15.2849  15.3058  15.3269  15.3482  15.0691  15.0873  15.1058  15.1247
 CONDUCTIVITY      5.0037   5.0393   5.0751   5.1108   4.6141   4.6493   4.6845   4.7198
 PRANDTL NUMBER    0.6967   0.6969   0.6970   0.6972   0.6949   0.6951   0.6952   0.6954

  WITH FROZEN REACTIONS

 Cp, KJ/(KG)(K)   15.2848  15.3057  15.3268  15.3480  15.0691  15.0872  15.1058  15.1247
 CONDUCTIVITY      5.0036   5.0393   5.0750   5.1107   4.6141   4.6493   4.6845   4.7198
 PRANDTL NUMBER    0.6967   0.6969   0.6970   0.6972   0.6949   0.6951   0.6952   0.6954

 MOLE FRACTIONS

 *H2              1.00000  1.00000  1.00000  1.00000  1.00000  1.00000  1.00000  1.00000

  * THERMODYNAMIC PROPERTIES FITTED TO 20000.K

 NOTE. WEIGHT FRACTION OF FUEL IN TOTAL FUELS AND OF OXIDANT IN TOTAL OXIDANTS









               THERMODYNAMIC EQUILIBRIUM PROPERTIES AT ASSIGNED

                           TEMPERATURE AND PRESSURE

 CASE =                

             REACTANT                    WT FRACTION      ENERGY      TEMP
                                          (SEE NOTE)     KJ/KG-MOL      K  
             H2                           1.0000000         0.000      0.000

 O/F=    0.00000  %FUEL=100.000000  R,EQ.RATIO= 0.000000  PHI,EQ.RATIO= 0.000000

 THERMODYNAMIC PROPERTIES

 P, BAR            3.9000   3.9000   3.9000   3.9000   3.9000   3.9000   3.9000   3.9000
 T, K             1090.00  1100.00  1110.00  1120.00  1130.00  1140.00  1150.00  1160.00
 RHO, KG/CU M    8.6750-2 8.5961-2 8.5187-2 8.4426-2 8.3679-2 8.2945-2 8.2224-2 8.1515-2
 H, KJ/KG         11613.6  11765.1  11916.9  12068.8  12220.9  12373.2  12525.8  12678.5
 U, KJ/KG         7117.90  7228.19  7338.67  7449.36  7560.24  7671.33  7782.62  7894.12
 G, KJ/KG        -73557.0 -74339.1 -75122.5 -75907.3 -76693.5 -77481.0 -78269.9 -79060.1
 S, KJ/(KG)(K)    78.1381  78.2765  78.4139  78.5501  78.6853  78.8196  78.9528  79.0850

 M, (1/n)           2.016    2.016    2.016    2.016    2.016    2.016    2.016    2.016
 (dLV/dLP)t      -1.00000 -1.00000 -1.00000 -1.00000 -1.00000 -1.00000 -1.00000 -1.00000
 (dLV/dLT)p        1.0000   1.0000   1.0000   1.0000   1.0000   1.0000   1.0000   1.0000
 Cp, KJ/(KG)(K)   15.1438  15.1633  15.1830  15.2030  15.2232  15.2436  15.2641  15.2849
 GAMMAs            1.3743   1.3736   1.3730   1.3723   1.3716   1.3709   1.3703   1.3696
 SON VEL,M/SEC     2485.6   2496.4   2507.1   2517.8   2528.4   2538.9   2549.4   2559.8

 TRANSPORT PROPERTIES (GASES ONLY)
   CONDUCTIVITY IN UNITS OF MILLIWATTS/(CM)(K)

 VISC,MILLIPOISE  0.21841  0.21980  0.22120  0.22258  0.22396  0.22534  0.22671  0.22808

  WITH EQUILIBRIUM REACTIONS

 Cp, KJ/(KG)(K)   15.1438  15.1633  15.1830  15.2030  15.2232  15.2436  15.2641  15.2849
 CONDUCTIVITY      4.7551   4.7905   4.8259   4.8614   4.8969   4.9324   4.9680   5.0037
 PRANDTL NUMBER    0.6956   0.6957   0.6959   0.6961   0.6962   0.6964   0.6966   0.6967

  WITH FROZEN REACTIONS

 Cp, KJ/(KG)(K)   15.1438  15.1633  15.1830  15.2029  15.2231  15.2435  15.2641  15.2848
 CONDUCTIVITY      4.7551   4.7905   4.8259   4.8614   4.8969   4.9324   4.9680   5.0036
 PRANDTL NUMBER    0.6956   0.6957   0.6959   0.6961   0.6962   0.6964   0.6966   0.6967

 MOLE FRACTIONS

 *H2              1.00000  1.00000  1.00000  1.00000  1.00000  1.00000  1.00000  1.00000

  * THERMODYNAMIC PROPERTIES FITTED TO 20000.K

 NOTE. WEIGHT FRACTION OF FUEL IN TOTAL FUELS AND OF OXIDANT IN TOTAL OXIDANTS









               THERMODYNAMIC EQUILIBRIUM PROPERTIES AT ASSIGNED

                           TEMPERATURE AND PRESSURE

 CASE =                

             REACTANT                    WT FRACTION      ENERGY      TEMP
                                          (SEE NOTE)     KJ/KG-MOL      K  
             H2                           1.0000000         0.000      0.000

 O/F=    0.00000  %FUEL=100.000000  R,EQ.RATIO= 0.000000  PHI,EQ.RATIO= 0.000000

 THERMODYNAMIC PROPERTIES

 P, BAR            3.9000   3.9000   3.9000   4.4000   4.4000   4.4000   4.4000   4.4000
 T, K             1170.00  1180.00  1190.00  1050.00  1060.00  1070.00  1080.00  1090.00
 RHO, KG/CU M    8.0818-2 8.0133-2 7.9460-2 1.0160-1 1.0064-1 9.9701-2 9.8778-2 9.7872-2
 H, KJ/KG         12831.5  12984.6  13138.0  11009.4  11160.1  11311.1  11462.2  11613.6
 U, KJ/KG         8005.83  8117.75  8229.88  6678.63  6788.17  6897.89  7007.80  7117.89
 G, KJ/KG        -79851.6 -80644.4 -81438.5 -69920.4 -70691.8 -71464.7 -72239.0 -73014.7
 S, KJ/(KG)(K)    79.2163  79.3467  79.4761  77.0759  77.2188  77.3605  77.5011  77.6406

 M, (1/n)           2.016    2.016    2.016    2.016    2.016    2.016    2.016    2.016
 (dLV/dLP)t      -1.00000 -1.00000 -1.00000 -1.00000 -1.00000 -1.00000 -1.00000 -1.00000
 (dLV/dLT)p        1.0000   1.0000   1.0000   1.0000   1.0000   1.0000   1.0000   1.0000
 Cp, KJ/(KG)(K)   15.3058  15.3269  15.3481  15.0691  15.0872  15.1058  15.1247  15.1438
 GAMMAs            1.3689   1.3682   1.3675   1.3769   1.3762   1.3756   1.3750   1.3743
 SON VEL,M/SEC     2570.2   2580.5   2590.7   2441.9   2452.9   2463.9   2474.8   2485.6

 TRANSPORT PROPERTIES (GASES ONLY)
   CONDUCTIVITY IN UNITS OF MILLIWATTS/(CM)(K)

 VISC,MILLIPOISE  0.22944  0.23080  0.23215  0.21277  0.21419  0.21560  0.21701  0.21841

  WITH EQUILIBRIUM REACTIONS

 Cp, KJ/(KG)(K)   15.3058  15.3269  15.3481  15.0691  15.0873  15.1058  15.1247  15.1438
 CONDUCTIVITY      5.0393   5.0751   5.1108   4.6141   4.6493   4.6845   4.7198   4.7551
 PRANDTL NUMBER    0.6969   0.6970   0.6972   0.6949   0.6951   0.6952   0.6954   0.6956

  WITH FROZEN REACTIONS

 Cp, KJ/(KG)(K)   15.3057  15.3268  15.3480  15.0691  15.0872  15.1058  15.1247  15.1438
 CONDUCTIVITY      5.0393   5.0750   5.1107   4.6141   4.6493   4.6845   4.7198   4.7551
 PRANDTL NUMBER    0.6969   0.6970   0.6972   0.6949   0.6951   0.6952   0.6954   0.6956

 MOLE FRACTIONS

 *H2              1.00000  1.00000  1.00000  1.00000  1.00000  1.00000  1.00000  1.00000

  * THERMODYNAMIC PROPERTIES FITTED TO 20000.K

 NOTE. WEIGHT FRACTION OF FUEL IN TOTAL FUELS AND OF OXIDANT IN TOTAL OXIDANTS









               THERMODYNAMIC EQUILIBRIUM PROPERTIES AT ASSIGNED

                           TEMPERATURE AND PRESSURE

 CASE =                

             REACTANT                    WT FRACTION      ENERGY      TEMP
                                          (SEE NOTE)     KJ/KG-MOL      K  
             H2                           1.0000000         0.000      0.000

 O/F=    0.00000  %FUEL=100.000000  R,EQ.RATIO= 0.000000  PHI,EQ.RATIO= 0.000000

 THERMODYNAMIC PROPERTIES

 P, BAR            4.4000   4.4000   4.4000   4.4000   4.4000   4.4000   4.4000   4.4000
 T, K             1100.00  1110.00  1120.00  1130.00  1140.00  1150.00  1160.00  1170.00
 RHO, KG/CU M    9.6982-2 9.6108-2 9.5250-2 9.4407-2 9.3579-2 9.2765-2 9.1965-2 9.1179-2
 H, KJ/KG         11765.1  11916.9  12068.8  12220.9  12373.2  12525.8  12678.5  12831.5
 U, KJ/KG         7228.19  7338.67  7449.36  7560.24  7671.33  7782.62  7894.12  8005.83
 G, KJ/KG        -73791.8 -74570.3 -75350.1 -76131.3 -76913.9 -77697.7 -78483.0 -79269.5
 S, KJ/(KG)(K)    77.7790  77.9163  78.0526  78.1878  78.3220  78.4552  78.5875  78.7188

 M, (1/n)           2.016    2.016    2.016    2.016    2.016    2.016    2.016    2.016
 (dLV/dLP)t      -1.00000 -1.00000 -1.00000 -1.00000 -1.00000 -1.00000 -1.00000 -1.00000
 (dLV/dLT)p        1.0000   1.0000   1.0000   1.0000   1.0000   1.0000   1.0000   1.0000
 Cp, KJ/(KG)(K)   15.1633  15.1830  15.2030  15.2232  15.2435  15.2641  15.2849  15.3058
 GAMMAs            1.3736   1.3730   1.3723   1.3716   1.3709   1.3703   1.3696   1.3689
 SON VEL,M/SEC     2496.4   2507.1   2517.8   2528.4   2538.9   2549.4   2559.8   2570.2

 TRANSPORT PROPERTIES (GASES ONLY)
   CONDUCTIVITY IN UNITS OF MILLIWATTS/(CM)(K)

 VISC,MILLIPOISE  0.21980  0.22120  0.22258  0.22396  0.22534  0.22671  0.22808  0.22944

  WITH EQUILIBRIUM REACTIONS

 Cp, KJ/(KG)(K)   15.1633  15.1830  15.2030  15.2232  15.2435  15.2641  15.2849  15.3058
 CONDUCTIVITY      4.7905   4.8259   4.8614   4.8969   4.9324   4.9680   5.0037   5.0393
 PRANDTL NUMBER    0.6957   0.6959   0.6961   0.6962   0.6964   0.6966   0.6967   0.6969

  WITH FROZEN REACTIONS

 Cp, KJ/(KG)(K)   15.1633  15.1830  15.2029  15.2231  15.2435  15.2641  15.2848  15.3057
 CONDUCTIVITY      4.7905   4.8259   4.8614   4.8969   4.9324   4.9680   5.0036   5.0393
 PRANDTL NUMBER    0.6957   0.6959   0.6961   0.6962   0.6964   0.6966   0.6967   0.6969

 MOLE FRACTIONS

 *H2              1.00000  1.00000  1.00000  1.00000  1.00000  1.00000  1.00000  1.00000

  * THERMODYNAMIC PROPERTIES FITTED TO 20000.K

 NOTE. WEIGHT FRACTION OF FUEL IN TOTAL FUELS AND OF OXIDANT IN TOTAL OXIDANTS









               THERMODYNAMIC EQUILIBRIUM PROPERTIES AT ASSIGNED

                           TEMPERATURE AND PRESSURE

 CASE =                

             REACTANT                    WT FRACTION      ENERGY      TEMP
                                          (SEE NOTE)     KJ/KG-MOL      K  
             H2                           1.0000000         0.000      0.000

 O/F=    0.00000  %FUEL=100.000000  R,EQ.RATIO= 0.000000  PHI,EQ.RATIO= 0.000000

 THERMODYNAMIC PROPERTIES

 P, BAR            4.4000   4.4000   4.9000   4.9000   4.9000   4.9000   4.9000   4.9000
 T, K             1180.00  1190.00  1050.00  1060.00  1070.00  1080.00  1090.00  1100.00
 RHO, KG/CU M    9.0407-2 8.9647-2 1.1315-1 1.1208-1 1.1103-1 1.1000-1 1.0899-1 1.0800-1
 H, KJ/KG         12984.6  13138.0  11009.4  11160.1  11311.1  11462.2  11613.6  11765.1
 U, KJ/KG         8117.75  8229.88  6678.63  6788.17  6897.89  7007.80  7117.89  7228.19
 G, KJ/KG        -80057.3 -80846.5 -69454.3 -70221.2 -70989.7 -71759.5 -72530.8 -73303.5
 S, KJ/(KG)(K)    78.8491  78.9786  76.6320  76.7749  76.9166  77.0572  77.1967  77.3351

 M, (1/n)           2.016    2.016    2.016    2.016    2.016    2.016    2.016    2.016
 (dLV/dLP)t      -1.00000 -1.00000 -1.00000 -1.00000 -1.00000 -1.00000 -1.00000 -1.00000
 (dLV/dLT)p        1.0000   1.0000   1.0000   1.0000   1.0000   1.0000   1.0000   1.0000
 Cp, KJ/(KG)(K)   15.3269  15.3481  15.0691  15.0872  15.1058  15.1247  15.1438  15.1633
 GAMMAs            1.3682   1.3675   1.3769   1.3762   1.3756   1.3750   1.3743   1.3736
 SON VEL,M/SEC     2580.5   2590.7   2441.9   2452.9   2463.9   2474.8   2485.6   2496.4

 TRANSPORT PROPERTIES (GASES ONLY)
   CONDUCTIVITY IN UNITS OF MILLIWATTS/(CM)(K)

 VISC,MILLIPOISE  0.23080  0.23215  0.21277  0.21419  0.21560  0.21701  0.21841  0.21980

  WITH EQUILIBRIUM REACTIONS

 Cp, KJ/(KG)(K)   15.3269  15.3481  15.0691  15.0873  15.1058  15.1247  15.1438  15.1633
 CONDUCTIVITY      5.0751   5.1108   4.6141   4.6493   4.6845   4.7198   4.7551   4.7905
 PRANDTL NUMBER    0.6970   0.6972   0.6949   0.6951   0.6952   0.6954   0.6956   0.6957

  WITH FROZEN REACTIONS

 Cp, KJ/(KG)(K)   15.3268  15.3480  15.0691  15.0872  15.1058  15.1247  15.1438  15.1633
 CONDUCTIVITY      5.0750   5.1107   4.6141   4.6493   4.6845   4.7198   4.7551   4.7905
 PRANDTL NUMBER    0.6970   0.6972   0.6949   0.6951   0.6952   0.6954   0.6956   0.6957

 MOLE FRACTIONS

 *H2              1.00000  1.00000  1.00000  1.00000  1.00000  1.00000  1.00000  1.00000

  * THERMODYNAMIC PROPERTIES FITTED TO 20000.K

 NOTE. WEIGHT FRACTION OF FUEL IN TOTAL FUELS AND OF OXIDANT IN TOTAL OXIDANTS









               THERMODYNAMIC EQUILIBRIUM PROPERTIES AT ASSIGNED

                           TEMPERATURE AND PRESSURE

 CASE =                

             REACTANT                    WT FRACTION      ENERGY      TEMP
                                          (SEE NOTE)     KJ/KG-MOL      K  
             H2                           1.0000000         0.000      0.000

 O/F=    0.00000  %FUEL=100.000000  R,EQ.RATIO= 0.000000  PHI,EQ.RATIO= 0.000000

 THERMODYNAMIC PROPERTIES

 P, BAR            4.9000   4.9000   4.9000   4.9000   4.9000   4.9000   4.9000   4.9000
 T, K             1110.00  1120.00  1130.00  1140.00  1150.00  1160.00  1170.00  1180.00
 RHO, KG/CU M    1.0703-1 1.0607-1 1.0514-1 1.0421-1 1.0331-1 1.0242-1 1.0154-1 1.0068-1
 H, KJ/KG         11916.9  12068.8  12220.9  12373.2  12525.8  12678.5  12831.5  12984.6
 U, KJ/KG         7338.67  7449.36  7560.24  7671.33  7782.62  7894.12  8005.83  8117.75
 G, KJ/KG        -74077.5 -74852.9 -75629.7 -76407.8 -77187.2 -77968.0 -78750.1 -79533.5
 S, KJ/(KG)(K)    77.4724  77.6087  77.7439  77.8781  78.0113  78.1436  78.2749  78.4052

 M, (1/n)           2.016    2.016    2.016    2.016    2.016    2.016    2.016    2.016
 (dLV/dLP)t      -1.00000 -1.00000 -1.00000 -1.00000 -1.00000 -1.00000 -1.00000 -1.00000
 (dLV/dLT)p        1.0000   1.0000   1.0000   1.0000   1.0000   1.0000   1.0000   1.0000
 Cp, KJ/(KG)(K)   15.1830  15.2030  15.2232  15.2435  15.2641  15.2849  15.3058  15.3269
 GAMMAs            1.3730   1.3723   1.3716   1.3709   1.3703   1.3696   1.3689   1.3682
 SON VEL,M/SEC     2507.1   2517.8   2528.4   2538.9   2549.4   2559.8   2570.2   2580.5

 TRANSPORT PROPERTIES (GASES ONLY)
   CONDUCTIVITY IN UNITS OF MILLIWATTS/(CM)(K)

 VISC,MILLIPOISE  0.22120  0.22258  0.22396  0.22534  0.22671  0.22808  0.22944  0.23080

  WITH EQUILIBRIUM REACTIONS

 Cp, KJ/(KG)(K)   15.1830  15.2030  15.2232  15.2435  15.2641  15.2849  15.3058  15.3269
 CONDUCTIVITY      4.8259   4.8614   4.8969   4.9324   4.9680   5.0037   5.0393   5.0751
 PRANDTL NUMBER    0.6959   0.6961   0.6962   0.6964   0.6966   0.6967   0.6969   0.6970

  WITH FROZEN REACTIONS

 Cp, KJ/(KG)(K)   15.1830  15.2029  15.2231  15.2435  15.2641  15.2848  15.3057  15.3268
 CONDUCTIVITY      4.8259   4.8614   4.8969   4.9324   4.9680   5.0036   5.0393   5.0750
 PRANDTL NUMBER    0.6959   0.6961   0.6962   0.6964   0.6966   0.6967   0.6969   0.6970

 MOLE FRACTIONS

 *H2              1.00000  1.00000  1.00000  1.00000  1.00000  1.00000  1.00000  1.00000

  * THERMODYNAMIC PROPERTIES FITTED TO 20000.K

 NOTE. WEIGHT FRACTION OF FUEL IN TOTAL FUELS AND OF OXIDANT IN TOTAL OXIDANTS









               THERMODYNAMIC EQUILIBRIUM PROPERTIES AT ASSIGNED

                           TEMPERATURE AND PRESSURE

 CASE =                

             REACTANT                    WT FRACTION      ENERGY      TEMP
                                          (SEE NOTE)     KJ/KG-MOL      K  
             H2                           1.0000000         0.000      0.000

 O/F=    0.00000  %FUEL=100.000000  R,EQ.RATIO= 0.000000  PHI,EQ.RATIO= 0.000000

 THERMODYNAMIC PROPERTIES

 P, BAR            4.9000   5.4000   5.4000   5.4000   5.4000   5.4000   5.4000   5.4000
 T, K             1190.00  1050.00  1060.00  1070.00  1080.00  1090.00  1100.00  1110.00
 RHO, KG/CU M    9.9834-2 1.2469-1 1.2351-1 1.2236-1 1.2123-1 1.2012-1 1.1902-1 1.1795-1
 H, KJ/KG         13138.0  11009.4  11160.1  11311.1  11462.2  11613.6  11765.1  11916.9
 U, KJ/KG         8229.88  6678.63  6788.17  6897.89  7007.80  7117.89  7228.19  7338.67
 G, KJ/KG        -80318.2 -69033.5 -69796.4 -70560.9 -71326.7 -72094.0 -72862.6 -73632.7
 S, KJ/(KG)(K)    78.5346  76.2313  76.3741  76.5159  76.6565  76.7959  76.9343  77.0716

 M, (1/n)           2.016    2.016    2.016    2.016    2.016    2.016    2.016    2.016
 (dLV/dLP)t      -1.00000 -1.00000 -1.00000 -1.00000 -1.00000 -1.00000 -1.00000 -1.00000
 (dLV/dLT)p        1.0000   1.0000   1.0000   1.0000   1.0000   1.0000   1.0000   1.0000
 Cp, KJ/(KG)(K)   15.3481  15.0691  15.0872  15.1058  15.1247  15.1438  15.1633  15.1830
 GAMMAs            1.3675   1.3769   1.3762   1.3756   1.3750   1.3743   1.3736   1.3730
 SON VEL,M/SEC     2590.7   2441.9   2452.9   2463.9   2474.8   2485.6   2496.4   2507.1

 TRANSPORT PROPERTIES (GASES ONLY)
   CONDUCTIVITY IN UNITS OF MILLIWATTS/(CM)(K)

 VISC,MILLIPOISE  0.23215  0.21277  0.21419  0.21560  0.21701  0.21841  0.21980  0.22120

  WITH EQUILIBRIUM REACTIONS

 Cp, KJ/(KG)(K)   15.3481  15.0691  15.0873  15.1058  15.1247  15.1438  15.1633  15.1830
 CONDUCTIVITY      5.1108   4.6141   4.6493   4.6845   4.7198   4.7551   4.7905   4.8259
 PRANDTL NUMBER    0.6972   0.6949   0.6951   0.6952   0.6954   0.6956   0.6957   0.6959

  WITH FROZEN REACTIONS

 Cp, KJ/(KG)(K)   15.3480  15.0691  15.0872  15.1058  15.1247  15.1438  15.1633  15.1830
 CONDUCTIVITY      5.1107   4.6141   4.6493   4.6845   4.7198   4.7551   4.7905   4.8259
 PRANDTL NUMBER    0.6972   0.6949   0.6951   0.6952   0.6954   0.6956   0.6957   0.6959

 MOLE FRACTIONS

 *H2              1.00000  1.00000  1.00000  1.00000  1.00000  1.00000  1.00000  1.00000

  * THERMODYNAMIC PROPERTIES FITTED TO 20000.K

 NOTE. WEIGHT FRACTION OF FUEL IN TOTAL FUELS AND OF OXIDANT IN TOTAL OXIDANTS









               THERMODYNAMIC EQUILIBRIUM PROPERTIES AT ASSIGNED

                           TEMPERATURE AND PRESSURE

 CASE =                

             REACTANT                    WT FRACTION      ENERGY      TEMP
                                          (SEE NOTE)     KJ/KG-MOL      K  
             H2                           1.0000000         0.000      0.000

 O/F=    0.00000  %FUEL=100.000000  R,EQ.RATIO= 0.000000  PHI,EQ.RATIO= 0.000000

 THERMODYNAMIC PROPERTIES

 P, BAR            5.4000   5.4000   5.4000   5.4000   5.4000   5.4000   5.4000   5.4000
 T, K             1120.00  1130.00  1140.00  1150.00  1160.00  1170.00  1180.00  1190.00
 RHO, KG/CU M    1.1690-1 1.1586-1 1.1485-1 1.1385-1 1.1287-1 1.1190-1 1.1095-1 1.1002-1
 H, KJ/KG         12068.8  12220.9  12373.2  12525.8  12678.5  12831.5  12984.6  13138.0
 U, KJ/KG         7449.36  7560.24  7671.33  7782.62  7894.12  8005.83  8117.75  8229.88
 G, KJ/KG        -74404.1 -75176.8 -75950.9 -76726.4 -77503.1 -78281.2 -79060.6 -79841.3
 S, KJ/(KG)(K)    77.2079  77.3431  77.4773  77.6106  77.7428  77.8741  78.0045  78.1339

 M, (1/n)           2.016    2.016    2.016    2.016    2.016    2.016    2.016    2.016
 (dLV/dLP)t      -1.00000 -1.00000 -1.00000 -1.00000 -1.00000 -1.00000 -1.00000 -1.00000
 (dLV/dLT)p        1.0000   1.0000   1.0000   1.0000   1.0000   1.0000   1.0000   1.0000
 Cp, KJ/(KG)(K)   15.2030  15.2231  15.2435  15.2641  15.2849  15.3058  15.3269  15.3481
 GAMMAs            1.3723   1.3716   1.3709   1.3703   1.3696   1.3689   1.3682   1.3675
 SON VEL,M/SEC     2517.8   2528.4   2538.9   2549.4   2559.8   2570.2   2580.5   2590.7

 TRANSPORT PROPERTIES (GASES ONLY)
   CONDUCTIVITY IN UNITS OF MILLIWATTS/(CM)(K)

 VISC,MILLIPOISE  0.22258  0.22396  0.22534  0.22671  0.22808  0.22944  0.23080  0.23215

  WITH EQUILIBRIUM REACTIONS

 Cp, KJ/(KG)(K)   15.2030  15.2231  15.2435  15.2641  15.2849  15.3058  15.3269  15.3481
 CONDUCTIVITY      4.8614   4.8969   4.9324   4.9680   5.0037   5.0393   5.0750   5.1108
 PRANDTL NUMBER    0.6961   0.6962   0.6964   0.6966   0.6967   0.6969   0.6970   0.6972

  WITH FROZEN REACTIONS

 Cp, KJ/(KG)(K)   15.2029  15.2231  15.2435  15.2641  15.2848  15.3057  15.3268  15.3480
 CONDUCTIVITY      4.8614   4.8969   4.9324   4.9680   5.0036   5.0393   5.0750   5.1107
 PRANDTL NUMBER    0.6961   0.6962   0.6964   0.6966   0.6967   0.6969   0.6970   0.6972

 MOLE FRACTIONS

 *H2              1.00000  1.00000  1.00000  1.00000  1.00000  1.00000  1.00000  1.00000

  * THERMODYNAMIC PROPERTIES FITTED TO 20000.K

 NOTE. WEIGHT FRACTION OF FUEL IN TOTAL FUELS AND OF OXIDANT IN TOTAL OXIDANTS









               THERMODYNAMIC EQUILIBRIUM PROPERTIES AT ASSIGNED

                           TEMPERATURE AND PRESSURE

 CASE =                

             REACTANT                    WT FRACTION      ENERGY      TEMP
                                          (SEE NOTE)     KJ/KG-MOL      K  
             H2                           1.0000000         0.000      0.000

 O/F=    0.00000  %FUEL=100.000000  R,EQ.RATIO= 0.000000  PHI,EQ.RATIO= 0.000000

 THERMODYNAMIC PROPERTIES

 P, BAR            6.0000   6.0000   6.0000   6.0000   6.0000   6.0000   6.0000   6.0000
 T, K             1050.00  1060.00  1070.00  1080.00  1090.00  1100.00  1110.00  1120.00
 RHO, KG/CU M    1.3855-1 1.3724-1 1.3596-1 1.3470-1 1.3346-1 1.3225-1 1.3106-1 1.2989-1
 H, KJ/KG         11009.4  11160.1  11311.1  11462.2  11613.6  11765.1  11916.9  12068.8
 U, KJ/KG         6678.63  6788.17  6897.89  7007.80  7117.89  7228.19  7338.67  7449.36
 G, KJ/KG        -68577.2 -69335.8 -70095.9 -70857.4 -71620.3 -72384.6 -73150.3 -73917.4
 S, KJ/(KG)(K)    75.7967  75.9396  76.0813  76.2219  76.3614  76.4998  76.6371  76.7733

 M, (1/n)           2.016    2.016    2.016    2.016    2.016    2.016    2.016    2.016
 (dLV/dLP)t      -1.00000 -1.00000 -1.00000 -1.00000 -1.00000 -1.00000 -1.00000 -1.00000
 (dLV/dLT)p        1.0000   1.0000   1.0000   1.0000   1.0000   1.0000   1.0000   1.0000
 Cp, KJ/(KG)(K)   15.0691  15.0872  15.1058  15.1247  15.1438  15.1633  15.1830  15.2030
 GAMMAs            1.3769   1.3762   1.3756   1.3750   1.3743   1.3736   1.3730   1.3723
 SON VEL,M/SEC     2441.9   2452.9   2463.9   2474.8   2485.6   2496.4   2507.1   2517.8

 TRANSPORT PROPERTIES (GASES ONLY)
   CONDUCTIVITY IN UNITS OF MILLIWATTS/(CM)(K)

 VISC,MILLIPOISE  0.21277  0.21419  0.21560  0.21701  0.21841  0.21980  0.22120  0.22258

  WITH EQUILIBRIUM REACTIONS

 Cp, KJ/(KG)(K)   15.0691  15.0873  15.1058  15.1247  15.1438  15.1633  15.1830  15.2030
 CONDUCTIVITY      4.6141   4.6493   4.6845   4.7198   4.7551   4.7905   4.8259   4.8614
 PRANDTL NUMBER    0.6949   0.6951   0.6952   0.6954   0.6956   0.6957   0.6959   0.6961

  WITH FROZEN REACTIONS

 Cp, KJ/(KG)(K)   15.0691  15.0872  15.1058  15.1247  15.1438  15.1633  15.1830  15.2029
 CONDUCTIVITY      4.6141   4.6493   4.6845   4.7198   4.7551   4.7905   4.8259   4.8614
 PRANDTL NUMBER    0.6949   0.6951   0.6952   0.6954   0.6956   0.6957   0.6959   0.6961

 MOLE FRACTIONS

 *H2              1.00000  1.00000  1.00000  1.00000  1.00000  1.00000  1.00000  1.00000

  * THERMODYNAMIC PROPERTIES FITTED TO 20000.K

 NOTE. WEIGHT FRACTION OF FUEL IN TOTAL FUELS AND OF OXIDANT IN TOTAL OXIDANTS









               THERMODYNAMIC EQUILIBRIUM PROPERTIES AT ASSIGNED

                           TEMPERATURE AND PRESSURE

 CASE =                

             REACTANT                    WT FRACTION      ENERGY      TEMP
                                          (SEE NOTE)     KJ/KG-MOL      K  
             H2                           1.0000000         0.000      0.000

 O/F=    0.00000  %FUEL=100.000000  R,EQ.RATIO= 0.000000  PHI,EQ.RATIO= 0.000000

 THERMODYNAMIC PROPERTIES

 P, BAR            6.0000   6.0000   6.0000   6.0000   6.0000   6.0000   6.0000   6.7000
 T, K             1130.00  1140.00  1150.00  1160.00  1170.00  1180.00  1190.00  1050.00
 RHO, KG/CU M    1.2874-1 1.2761-1 1.2650-1 1.2541-1 1.2434-1 1.2328-1 1.2225-1 1.5471-1
 H, KJ/KG         12220.9  12373.2  12525.8  12678.5  12831.5  12984.6  13138.0  11009.4
 U, KJ/KG         7560.24  7671.33  7782.62  7894.12  8005.83  8117.75  8229.88  6678.63
 G, KJ/KG        -74685.8 -75455.5 -76226.6 -76999.0 -77772.8 -78547.8 -79324.2 -68099.3
 S, KJ/(KG)(K)    76.9086  77.0428  77.1760  77.3083  77.4395  77.5699  77.6993  75.3416

 M, (1/n)           2.016    2.016    2.016    2.016    2.016    2.016    2.016    2.016
 (dLV/dLP)t      -1.00000 -1.00000 -1.00000 -1.00000 -1.00000 -1.00000 -1.00000 -1.00000
 (dLV/dLT)p        1.0000   1.0000   1.0000   1.0000   1.0000   1.0000   1.0000   1.0000
 Cp, KJ/(KG)(K)   15.2231  15.2435  15.2641  15.2849  15.3058  15.3269  15.3481  15.0691
 GAMMAs            1.3716   1.3709   1.3703   1.3696   1.3689   1.3682   1.3675   1.3769
 SON VEL,M/SEC     2528.4   2538.9   2549.4   2559.8   2570.2   2580.5   2590.7   2441.9

 TRANSPORT PROPERTIES (GASES ONLY)
   CONDUCTIVITY IN UNITS OF MILLIWATTS/(CM)(K)

 VISC,MILLIPOISE  0.22396  0.22534  0.22671  0.22808  0.22944  0.23080  0.23215  0.21277

  WITH EQUILIBRIUM REACTIONS

 Cp, KJ/(KG)(K)   15.2231  15.2435  15.2641  15.2849  15.3058  15.3269  15.3481  15.0691
 CONDUCTIVITY      4.8969   4.9324   4.9680   5.0037   5.0393   5.0750   5.1108   4.6141
 PRANDTL NUMBER    0.6962   0.6964   0.6966   0.6967   0.6969   0.6970   0.6972   0.6949

  WITH FROZEN REACTIONS

 Cp, KJ/(KG)(K)   15.2231  15.2435  15.2641  15.2848  15.3057  15.3268  15.3480  15.0691
 CONDUCTIVITY      4.8969   4.9324   4.9680   5.0036   5.0393   5.0750   5.1107   4.6141
 PRANDTL NUMBER    0.6962   0.6964   0.6966   0.6967   0.6969   0.6970   0.6972   0.6949

 MOLE FRACTIONS

 *H2              1.00000  1.00000  1.00000  1.00000  1.00000  1.00000  1.00000  1.00000

  * THERMODYNAMIC PROPERTIES FITTED TO 20000.K

 NOTE. WEIGHT FRACTION OF FUEL IN TOTAL FUELS AND OF OXIDANT IN TOTAL OXIDANTS









               THERMODYNAMIC EQUILIBRIUM PROPERTIES AT ASSIGNED

                           TEMPERATURE AND PRESSURE

 CASE =                

             REACTANT                    WT FRACTION      ENERGY      TEMP
                                          (SEE NOTE)     KJ/KG-MOL      K  
             H2                           1.0000000         0.000      0.000

 O/F=    0.00000  %FUEL=100.000000  R,EQ.RATIO= 0.000000  PHI,EQ.RATIO= 0.000000

 THERMODYNAMIC PROPERTIES

 P, BAR            6.7000   6.7000   6.7000   6.7000   6.7000   6.7000   6.7000   6.7000
 T, K             1060.00  1070.00  1080.00  1090.00  1100.00  1110.00  1120.00  1130.00
 RHO, KG/CU M    1.5325-1 1.5182-1 1.5041-1 1.4903-1 1.4768-1 1.4635-1 1.4504-1 1.4376-1
 H, KJ/KG         11160.1  11311.1  11462.2  11613.6  11765.1  11916.9  12068.8  12220.9
 U, KJ/KG         6788.17  6897.89  7007.80  7117.89  7228.18  7338.67  7449.36  7560.24
 G, KJ/KG        -68853.4 -69608.9 -70365.9 -71124.2 -71884.0 -72645.1 -73407.6 -74171.5
 S, KJ/(KG)(K)    75.4844  75.6262  75.7668  75.9062  76.0446  76.1820  76.3182  76.4534

 M, (1/n)           2.016    2.016    2.016    2.016    2.016    2.016    2.016    2.016
 (dLV/dLP)t      -1.00000 -1.00000 -1.00000 -1.00000 -1.00000 -1.00000 -1.00000 -1.00000
 (dLV/dLT)p        1.0000   1.0000   1.0000   1.0000   1.0000   1.0000   1.0000   1.0000
 Cp, KJ/(KG)(K)   15.0872  15.1058  15.1247  15.1438  15.1633  15.1830  15.2030  15.2231
 GAMMAs            1.3762   1.3756   1.3750   1.3743   1.3736   1.3730   1.3723   1.3716
 SON VEL,M/SEC     2452.9   2463.9   2474.8   2485.6   2496.4   2507.1   2517.8   2528.4

 TRANSPORT PROPERTIES (GASES ONLY)
   CONDUCTIVITY IN UNITS OF MILLIWATTS/(CM)(K)

 VISC,MILLIPOISE  0.21419  0.21560  0.21701  0.21841  0.21980  0.22120  0.22258  0.22396

  WITH EQUILIBRIUM REACTIONS

 Cp, KJ/(KG)(K)   15.0873  15.1058  15.1247  15.1438  15.1633  15.1830  15.2030  15.2231
 CONDUCTIVITY      4.6493   4.6845   4.7198   4.7551   4.7905   4.8259   4.8614   4.8969
 PRANDTL NUMBER    0.6951   0.6952   0.6954   0.6956   0.6957   0.6959   0.6961   0.6962

  WITH FROZEN REACTIONS

 Cp, KJ/(KG)(K)   15.0872  15.1058  15.1247  15.1438  15.1633  15.1830  15.2029  15.2231
 CONDUCTIVITY      4.6493   4.6845   4.7198   4.7551   4.7905   4.8259   4.8614   4.8969
 PRANDTL NUMBER    0.6951   0.6952   0.6954   0.6956   0.6957   0.6959   0.6961   0.6962

 MOLE FRACTIONS

 *H2              1.00000  1.00000  1.00000  1.00000  1.00000  1.00000  1.00000  1.00000

  * THERMODYNAMIC PROPERTIES FITTED TO 20000.K

 NOTE. WEIGHT FRACTION OF FUEL IN TOTAL FUELS AND OF OXIDANT IN TOTAL OXIDANTS









               THERMODYNAMIC EQUILIBRIUM PROPERTIES AT ASSIGNED

                           TEMPERATURE AND PRESSURE

 CASE =                

             REACTANT                    WT FRACTION      ENERGY      TEMP
                                          (SEE NOTE)     KJ/KG-MOL      K  
             H2                           1.0000000         0.000      0.000

 O/F=    0.00000  %FUEL=100.000000  R,EQ.RATIO= 0.000000  PHI,EQ.RATIO= 0.000000

 THERMODYNAMIC PROPERTIES

 P, BAR            6.7000   6.7000   6.7000   6.7000   6.7000   6.7000   7.4000   7.4000
 T, K             1140.00  1150.00  1160.00  1170.00  1180.00  1190.00  1050.00  1060.00
 RHO, KG/CU M    1.4250-1 1.4126-1 1.4004-1 1.3884-1 1.3766-1 1.3651-1 1.7087-1 1.6926-1
 H, KJ/KG         12373.2  12525.8  12678.5  12831.5  12984.6  13138.0  11009.4  11160.1
 U, KJ/KG         7671.33  7782.62  7894.12  8005.83  8117.75  8229.88  6678.63  6788.17
 G, KJ/KG        -74936.7 -75703.2 -76471.1 -77240.3 -78010.8 -78782.6 -67668.9 -68418.9
 S, KJ/(KG)(K)    76.5877  76.7209  76.8531  76.9844  77.1148  77.2442  74.9317  75.0746

 M, (1/n)           2.016    2.016    2.016    2.016    2.016    2.016    2.016    2.016
 (dLV/dLP)t      -1.00000 -1.00000 -1.00000 -1.00000 -1.00000 -1.00000 -1.00000 -1.00000
 (dLV/dLT)p        1.0000   1.0000   1.0000   1.0000   1.0000   1.0000   1.0000   1.0000
 Cp, KJ/(KG)(K)   15.2435  15.2641  15.2849  15.3058  15.3269  15.3481  15.0691  15.0872
 GAMMAs            1.3709   1.3703   1.3696   1.3689   1.3682   1.3675   1.3769   1.3762
 SON VEL,M/SEC     2538.9   2549.4   2559.8   2570.2   2580.5   2590.7   2441.9   2452.9

 TRANSPORT PROPERTIES (GASES ONLY)
   CONDUCTIVITY IN UNITS OF MILLIWATTS/(CM)(K)

 VISC,MILLIPOISE  0.22534  0.22671  0.22808  0.22944  0.23080  0.23215  0.21277  0.21419

  WITH EQUILIBRIUM REACTIONS

 Cp, KJ/(KG)(K)   15.2435  15.2641  15.2849  15.3058  15.3269  15.3481  15.0691  15.0873
 CONDUCTIVITY      4.9324   4.9680   5.0037   5.0393   5.0750   5.1108   4.6141   4.6493
 PRANDTL NUMBER    0.6964   0.6966   0.6967   0.6969   0.6970   0.6972   0.6949   0.6951

  WITH FROZEN REACTIONS

 Cp, KJ/(KG)(K)   15.2435  15.2641  15.2848  15.3057  15.3268  15.3480  15.0691  15.0872
 CONDUCTIVITY      4.9324   4.9680   5.0036   5.0393   5.0750   5.1107   4.6141   4.6493
 PRANDTL NUMBER    0.6964   0.6966   0.6967   0.6969   0.6970   0.6972   0.6949   0.6951

 MOLE FRACTIONS

 *H2              1.00000  1.00000  1.00000  1.00000  1.00000  1.00000  1.00000  1.00000

  * THERMODYNAMIC PROPERTIES FITTED TO 20000.K

 NOTE. WEIGHT FRACTION OF FUEL IN TOTAL FUELS AND OF OXIDANT IN TOTAL OXIDANTS









               THERMODYNAMIC EQUILIBRIUM PROPERTIES AT ASSIGNED

                           TEMPERATURE AND PRESSURE

 CASE =                

             REACTANT                    WT FRACTION      ENERGY      TEMP
                                          (SEE NOTE)     KJ/KG-MOL      K  
             H2                           1.0000000         0.000      0.000

 O/F=    0.00000  %FUEL=100.000000  R,EQ.RATIO= 0.000000  PHI,EQ.RATIO= 0.000000

 THERMODYNAMIC PROPERTIES

 P, BAR            7.4000   7.4000   7.4000   7.4000   7.4000   7.4000   7.4000   7.4000
 T, K             1070.00  1080.00  1090.00  1100.00  1110.00  1120.00  1130.00  1140.00
 RHO, KG/CU M    1.6768-1 1.6613-1 1.6460-1 1.6311-1 1.6164-1 1.6019-1 1.5878-1 1.5738-1
 H, KJ/KG         11311.1  11462.2  11613.6  11765.1  11916.9  12068.8  12220.9  12373.2
 U, KJ/KG         6897.89  7007.80  7117.89  7228.18  7338.67  7449.36  7560.24  7671.33
 G, KJ/KG        -69170.4 -69923.2 -70677.5 -71433.1 -72190.2 -72948.6 -73708.3 -74469.4
 S, KJ/(KG)(K)    75.2163  75.3569  75.4964  75.6348  75.7721  75.9084  76.0436  76.1778

 M, (1/n)           2.016    2.016    2.016    2.016    2.016    2.016    2.016    2.016
 (dLV/dLP)t      -1.00000 -1.00000 -1.00000 -1.00000 -1.00000 -1.00000 -1.00000 -1.00000
 (dLV/dLT)p        1.0000   1.0000   1.0000   1.0000   1.0000   1.0000   1.0000   1.0000
 Cp, KJ/(KG)(K)   15.1058  15.1247  15.1438  15.1633  15.1830  15.2030  15.2231  15.2435
 GAMMAs            1.3756   1.3750   1.3743   1.3736   1.3730   1.3723   1.3716   1.3709
 SON VEL,M/SEC     2463.9   2474.8   2485.6   2496.4   2507.1   2517.8   2528.4   2538.9

 TRANSPORT PROPERTIES (GASES ONLY)
   CONDUCTIVITY IN UNITS OF MILLIWATTS/(CM)(K)

 VISC,MILLIPOISE  0.21560  0.21701  0.21841  0.21980  0.22120  0.22258  0.22396  0.22534

  WITH EQUILIBRIUM REACTIONS

 Cp, KJ/(KG)(K)   15.1058  15.1247  15.1438  15.1633  15.1830  15.2030  15.2231  15.2435
 CONDUCTIVITY      4.6845   4.7198   4.7551   4.7905   4.8259   4.8614   4.8969   4.9324
 PRANDTL NUMBER    0.6952   0.6954   0.6956   0.6957   0.6959   0.6961   0.6962   0.6964

  WITH FROZEN REACTIONS

 Cp, KJ/(KG)(K)   15.1058  15.1247  15.1438  15.1633  15.1830  15.2029  15.2231  15.2435
 CONDUCTIVITY      4.6845   4.7198   4.7551   4.7905   4.8259   4.8614   4.8969   4.9324
 PRANDTL NUMBER    0.6952   0.6954   0.6956   0.6957   0.6959   0.6961   0.6962   0.6964

 MOLE FRACTIONS

 *H2              1.00000  1.00000  1.00000  1.00000  1.00000  1.00000  1.00000  1.00000

  * THERMODYNAMIC PROPERTIES FITTED TO 20000.K

 NOTE. WEIGHT FRACTION OF FUEL IN TOTAL FUELS AND OF OXIDANT IN TOTAL OXIDANTS









               THERMODYNAMIC EQUILIBRIUM PROPERTIES AT ASSIGNED

                           TEMPERATURE AND PRESSURE

 CASE =                

             REACTANT                    WT FRACTION      ENERGY      TEMP
                                          (SEE NOTE)     KJ/KG-MOL      K  
             H2                           1.0000000         0.000      0.000

 O/F=    0.00000  %FUEL=100.000000  R,EQ.RATIO= 0.000000  PHI,EQ.RATIO= 0.000000

 THERMODYNAMIC PROPERTIES

 P, BAR            7.4000   7.4000   7.4000   7.4000   7.4000   8.2500   8.2500   8.2500
 T, K             1150.00  1160.00  1170.00  1180.00  1190.00  1050.00  1060.00  1070.00
 RHO, KG/CU M    1.5601-1 1.5467-1 1.5335-1 1.5205-1 1.5077-1 1.9050-1 1.8870-1 1.8694-1
 H, KJ/KG         12525.8  12678.5  12831.5  12984.6  13138.0  11009.4  11160.1  11311.1
 U, KJ/KG         7782.62  7894.12  8005.83  8117.75  8229.88  6678.63  6788.17  6897.89
 G, KJ/KG        -75231.9 -75995.7 -76760.7 -77527.1 -78294.8 -67198.0 -67943.5 -68690.5
 S, KJ/(KG)(K)    76.3110  76.4433  76.5746  76.7049  76.8343  74.4832  74.6261  74.7678

 M, (1/n)           2.016    2.016    2.016    2.016    2.016    2.016    2.016    2.016
 (dLV/dLP)t      -1.00000 -1.00000 -1.00000 -1.00000 -1.00000 -1.00000 -1.00000 -1.00000
 (dLV/dLT)p        1.0000   1.0000   1.0000   1.0000   1.0000   1.0000   1.0000   1.0000
 Cp, KJ/(KG)(K)   15.2641  15.2849  15.3058  15.3269  15.3481  15.0691  15.0872  15.1058
 GAMMAs            1.3703   1.3696   1.3689   1.3682   1.3675   1.3769   1.3762   1.3756
 SON VEL,M/SEC     2549.4   2559.8   2570.2   2580.5   2590.7   2441.9   2452.9   2463.9

 TRANSPORT PROPERTIES (GASES ONLY)
   CONDUCTIVITY IN UNITS OF MILLIWATTS/(CM)(K)

 VISC,MILLIPOISE  0.22671  0.22808  0.22944  0.23080  0.23215  0.21277  0.21419  0.21560

  WITH EQUILIBRIUM REACTIONS

 Cp, KJ/(KG)(K)   15.2641  15.2849  15.3058  15.3269  15.3481  15.0691  15.0873  15.1058
 CONDUCTIVITY      4.9680   5.0037   5.0393   5.0750   5.1108   4.6141   4.6493   4.6845
 PRANDTL NUMBER    0.6966   0.6967   0.6969   0.6970   0.6972   0.6949   0.6951   0.6952

  WITH FROZEN REACTIONS

 Cp, KJ/(KG)(K)   15.2641  15.2848  15.3057  15.3268  15.3480  15.0691  15.0872  15.1058
 CONDUCTIVITY      4.9680   5.0036   5.0393   5.0750   5.1107   4.6141   4.6493   4.6845
 PRANDTL NUMBER    0.6966   0.6967   0.6969   0.6970   0.6972   0.6949   0.6951   0.6952

 MOLE FRACTIONS

 *H2              1.00000  1.00000  1.00000  1.00000  1.00000  1.00000  1.00000  1.00000

  * THERMODYNAMIC PROPERTIES FITTED TO 20000.K

 NOTE. WEIGHT FRACTION OF FUEL IN TOTAL FUELS AND OF OXIDANT IN TOTAL OXIDANTS









               THERMODYNAMIC EQUILIBRIUM PROPERTIES AT ASSIGNED

                           TEMPERATURE AND PRESSURE

 CASE =                

             REACTANT                    WT FRACTION      ENERGY      TEMP
                                          (SEE NOTE)     KJ/KG-MOL      K  
             H2                           1.0000000         0.000      0.000

 O/F=    0.00000  %FUEL=100.000000  R,EQ.RATIO= 0.000000  PHI,EQ.RATIO= 0.000000

 THERMODYNAMIC PROPERTIES

 P, BAR            8.2500   8.2500   8.2500   8.2500   8.2500   8.2500   8.2500   8.2500
 T, K             1080.00  1090.00  1100.00  1110.00  1120.00  1130.00  1140.00  1150.00
 RHO, KG/CU M    1.8521-1 1.8351-1 1.8184-1 1.8020-1 1.7859-1 1.7701-1 1.7546-1 1.7393-1
 H, KJ/KG         11462.2  11613.6  11765.1  11916.9  12068.8  12220.9  12373.2  12525.8
 U, KJ/KG         7007.80  7117.89  7228.18  7338.67  7449.36  7560.24  7671.33  7782.62
 G, KJ/KG        -69438.9 -70188.6 -70939.8 -71692.4 -72446.3 -73201.6 -73958.2 -74716.1
 S, KJ/(KG)(K)    74.9084  75.0479  75.1863  75.3236  75.4599  75.5951  75.7293  75.8625

 M, (1/n)           2.016    2.016    2.016    2.016    2.016    2.016    2.016    2.016
 (dLV/dLP)t      -1.00000 -1.00000 -1.00000 -1.00000 -1.00000 -1.00000 -1.00000 -1.00000
 (dLV/dLT)p        1.0000   1.0000   1.0000   1.0000   1.0000   1.0000   1.0000   1.0000
 Cp, KJ/(KG)(K)   15.1247  15.1438  15.1633  15.1830  15.2030  15.2231  15.2435  15.2641
 GAMMAs            1.3750   1.3743   1.3736   1.3730   1.3723   1.3716   1.3709   1.3703
 SON VEL,M/SEC     2474.8   2485.6   2496.4   2507.1   2517.8   2528.4   2538.9   2549.4

 TRANSPORT PROPERTIES (GASES ONLY)
   CONDUCTIVITY IN UNITS OF MILLIWATTS/(CM)(K)

 VISC,MILLIPOISE  0.21701  0.21841  0.21980  0.22120  0.22258  0.22396  0.22534  0.22671

  WITH EQUILIBRIUM REACTIONS

 Cp, KJ/(KG)(K)   15.1247  15.1438  15.1633  15.1830  15.2030  15.2231  15.2435  15.2641
 CONDUCTIVITY      4.7198   4.7551   4.7905   4.8259   4.8614   4.8969   4.9324   4.9680
 PRANDTL NUMBER    0.6954   0.6956   0.6957   0.6959   0.6961   0.6962   0.6964   0.6966

  WITH FROZEN REACTIONS

 Cp, KJ/(KG)(K)   15.1247  15.1438  15.1633  15.1830  15.2029  15.2231  15.2435  15.2641
 CONDUCTIVITY      4.7198   4.7551   4.7905   4.8259   4.8614   4.8969   4.9324   4.9680
 PRANDTL NUMBER    0.6954   0.6956   0.6957   0.6959   0.6961   0.6962   0.6964   0.6966

 MOLE FRACTIONS

 *H2              1.00000  1.00000  1.00000  1.00000  1.00000  1.00000  1.00000  1.00000

  * THERMODYNAMIC PROPERTIES FITTED TO 20000.K

 NOTE. WEIGHT FRACTION OF FUEL IN TOTAL FUELS AND OF OXIDANT IN TOTAL OXIDANTS









               THERMODYNAMIC EQUILIBRIUM PROPERTIES AT ASSIGNED

                           TEMPERATURE AND PRESSURE

 CASE =                

             REACTANT                    WT FRACTION      ENERGY      TEMP
                                          (SEE NOTE)     KJ/KG-MOL      K  
             H2                           1.0000000         0.000      0.000

 O/F=    0.00000  %FUEL=100.000000  R,EQ.RATIO= 0.000000  PHI,EQ.RATIO= 0.000000

 THERMODYNAMIC PROPERTIES

 P, BAR            8.2500   8.2500   8.2500   8.2500   9.1000   9.1000   9.1000   9.1000
 T, K             1160.00  1170.00  1180.00  1190.00  1050.00  1060.00  1070.00  1080.00
 RHO, KG/CU M    1.7244-1 1.7096-1 1.6951-1 1.6809-1 2.1013-1 2.0814-1 2.0620-1 2.0429-1
 H, KJ/KG         12678.5  12831.5  12984.6  13138.0  11009.4  11160.1  11311.1  11462.2
 U, KJ/KG         7894.12  8005.83  8117.75  8229.88  6678.63  6788.17  6897.89  7007.80
 G, KJ/KG        -75475.4 -76236.0 -76997.9 -77761.2 -66773.4 -67514.8 -68257.7 -69002.1
 S, KJ/(KG)(K)    75.9948  76.1261  76.2564  76.3859  74.0788  74.2216  74.3634  74.5040

 M, (1/n)           2.016    2.016    2.016    2.016    2.016    2.016    2.016    2.016
 (dLV/dLP)t      -1.00000 -1.00000 -1.00000 -1.00000 -1.00000 -1.00000 -1.00000 -1.00000
 (dLV/dLT)p        1.0000   1.0000   1.0000   1.0000   1.0000   1.0000   1.0000   1.0000
 Cp, KJ/(KG)(K)   15.2849  15.3058  15.3269  15.3481  15.0691  15.0872  15.1058  15.1247
 GAMMAs            1.3696   1.3689   1.3682   1.3675   1.3769   1.3762   1.3756   1.3750
 SON VEL,M/SEC     2559.8   2570.2   2580.5   2590.7   2441.9   2452.9   2463.9   2474.8

 TRANSPORT PROPERTIES (GASES ONLY)
   CONDUCTIVITY IN UNITS OF MILLIWATTS/(CM)(K)

 VISC,MILLIPOISE  0.22808  0.22944  0.23080  0.23215  0.21277  0.21419  0.21560  0.21701

  WITH EQUILIBRIUM REACTIONS

 Cp, KJ/(KG)(K)   15.2849  15.3058  15.3269  15.3481  15.0691  15.0873  15.1058  15.1247
 CONDUCTIVITY      5.0036   5.0393   5.0750   5.1108   4.6141   4.6493   4.6845   4.7198
 PRANDTL NUMBER    0.6967   0.6969   0.6970   0.6972   0.6949   0.6951   0.6952   0.6954

  WITH FROZEN REACTIONS

 Cp, KJ/(KG)(K)   15.2848  15.3057  15.3268  15.3480  15.0691  15.0872  15.1058  15.1247
 CONDUCTIVITY      5.0036   5.0393   5.0750   5.1107   4.6141   4.6493   4.6845   4.7198
 PRANDTL NUMBER    0.6967   0.6969   0.6970   0.6972   0.6949   0.6951   0.6952   0.6954

 MOLE FRACTIONS

 *H2              1.00000  1.00000  1.00000  1.00000  1.00000  1.00000  1.00000  1.00000

  * THERMODYNAMIC PROPERTIES FITTED TO 20000.K

 NOTE. WEIGHT FRACTION OF FUEL IN TOTAL FUELS AND OF OXIDANT IN TOTAL OXIDANTS









               THERMODYNAMIC EQUILIBRIUM PROPERTIES AT ASSIGNED

                           TEMPERATURE AND PRESSURE

 CASE =                

             REACTANT                    WT FRACTION      ENERGY      TEMP
                                          (SEE NOTE)     KJ/KG-MOL      K  
             H2                           1.0000000         0.000      0.000

 O/F=    0.00000  %FUEL=100.000000  R,EQ.RATIO= 0.000000  PHI,EQ.RATIO= 0.000000

 THERMODYNAMIC PROPERTIES

 P, BAR            9.1000   9.1000   9.1000   9.1000   9.1000   9.1000   9.1000   9.1000
 T, K             1090.00  1100.00  1110.00  1120.00  1130.00  1140.00  1150.00  1160.00
 RHO, KG/CU M    2.0242-1 2.0058-1 1.9877-1 1.9699-1 1.9525-1 1.9354-1 1.9186-1 1.9020-1
 H, KJ/KG         11613.6  11765.1  11916.9  12068.8  12220.9  12373.2  12525.8  12678.5
 U, KJ/KG         7117.89  7228.18  7338.67  7449.36  7560.24  7671.33  7782.62  7894.12
 G, KJ/KG        -69747.8 -70494.9 -71243.4 -71993.3 -72744.5 -73497.1 -74251.0 -75006.3
 S, KJ/(KG)(K)    74.6435  74.7819  74.9192  75.0554  75.1907  75.3249  75.4581  75.5903

 M, (1/n)           2.016    2.016    2.016    2.016    2.016    2.016    2.016    2.016
 (dLV/dLP)t      -1.00000 -1.00000 -1.00000 -1.00000 -1.00000 -1.00000 -1.00000 -1.00000
 (dLV/dLT)p        1.0000   1.0000   1.0000   1.0000   1.0000   1.0000   1.0000   1.0000
 Cp, KJ/(KG)(K)   15.1438  15.1633  15.1830  15.2030  15.2231  15.2435  15.2641  15.2849
 GAMMAs            1.3743   1.3736   1.3730   1.3723   1.3716   1.3709   1.3703   1.3696
 SON VEL,M/SEC     2485.6   2496.4   2507.1   2517.8   2528.4   2538.9   2549.4   2559.8

 TRANSPORT PROPERTIES (GASES ONLY)
   CONDUCTIVITY IN UNITS OF MILLIWATTS/(CM)(K)

 VISC,MILLIPOISE  0.21841  0.21980  0.22120  0.22258  0.22396  0.22534  0.22671  0.22808

  WITH EQUILIBRIUM REACTIONS

 Cp, KJ/(KG)(K)   15.1438  15.1633  15.1830  15.2030  15.2231  15.2435  15.2641  15.2849
 CONDUCTIVITY      4.7551   4.7905   4.8259   4.8614   4.8969   4.9324   4.9680   5.0036
 PRANDTL NUMBER    0.6956   0.6957   0.6959   0.6961   0.6962   0.6964   0.6966   0.6967

  WITH FROZEN REACTIONS

 Cp, KJ/(KG)(K)   15.1438  15.1633  15.1830  15.2029  15.2231  15.2435  15.2641  15.2848
 CONDUCTIVITY      4.7551   4.7905   4.8259   4.8614   4.8969   4.9324   4.9680   5.0036
 PRANDTL NUMBER    0.6956   0.6957   0.6959   0.6961   0.6962   0.6964   0.6966   0.6967

 MOLE FRACTIONS

 *H2              1.00000  1.00000  1.00000  1.00000  1.00000  1.00000  1.00000  1.00000

  * THERMODYNAMIC PROPERTIES FITTED TO 20000.K

 NOTE. WEIGHT FRACTION OF FUEL IN TOTAL FUELS AND OF OXIDANT IN TOTAL OXIDANTS









               THERMODYNAMIC EQUILIBRIUM PROPERTIES AT ASSIGNED

                           TEMPERATURE AND PRESSURE

 CASE =                

             REACTANT                    WT FRACTION      ENERGY      TEMP
                                          (SEE NOTE)     KJ/KG-MOL      K  
             H2                           1.0000000         0.000      0.000

 O/F=    0.00000  %FUEL=100.000000  R,EQ.RATIO= 0.000000  PHI,EQ.RATIO= 0.000000

 THERMODYNAMIC PROPERTIES

 P, BAR            9.1000   9.1000   9.1000   10.000   10.000   10.000   10.000   10.000
 T, K             1170.00  1180.00  1190.00  1050.00  1060.00  1070.00  1080.00  1090.00
 RHO, KG/CU M    1.8858-1 1.8698-1 1.8541-1 2.3091-1 2.2873-1 2.2659-1 2.2449-1 2.2244-1
 H, KJ/KG         12831.5  12984.6  13138.0  11009.4  11160.1  11311.1  11462.2  11613.6
 U, KJ/KG         8005.83  8117.75  8229.88  6678.63  6788.17  6897.89  7007.80  7117.89
 G, KJ/KG        -75762.8 -76520.7 -77279.9 -66364.9 -67102.5 -67841.5 -68582.0 -69323.8
 S, KJ/(KG)(K)    75.7216  75.8520  75.9814  73.6898  73.8327  73.9744  74.1150  74.2545

 M, (1/n)           2.016    2.016    2.016    2.016    2.016    2.016    2.016    2.016
 (dLV/dLP)t      -1.00000 -1.00000 -1.00000 -1.00000 -1.00000 -1.00000 -1.00000 -1.00000
 (dLV/dLT)p        1.0000   1.0000   1.0000   1.0000   1.0000   1.0000   1.0000   1.0000
 Cp, KJ/(KG)(K)   15.3058  15.3269  15.3481  15.0691  15.0872  15.1058  15.1247  15.1438
 GAMMAs            1.3689   1.3682   1.3675   1.3769   1.3762   1.3756   1.3750   1.3743
 SON VEL,M/SEC     2570.2   2580.5   2590.7   2441.9   2452.9   2463.9   2474.8   2485.6

 TRANSPORT PROPERTIES (GASES ONLY)
   CONDUCTIVITY IN UNITS OF MILLIWATTS/(CM)(K)

 VISC,MILLIPOISE  0.22944  0.23080  0.23215  0.21277  0.21419  0.21560  0.21701  0.21841

  WITH EQUILIBRIUM REACTIONS

 Cp, KJ/(KG)(K)   15.3058  15.3269  15.3481  15.0691  15.0873  15.1058  15.1247  15.1438
 CONDUCTIVITY      5.0393   5.0750   5.1108   4.6141   4.6493   4.6845   4.7198   4.7551
 PRANDTL NUMBER    0.6969   0.6970   0.6972   0.6949   0.6951   0.6952   0.6954   0.6956

  WITH FROZEN REACTIONS

 Cp, KJ/(KG)(K)   15.3057  15.3268  15.3480  15.0691  15.0872  15.1058  15.1247  15.1438
 CONDUCTIVITY      5.0393   5.0750   5.1107   4.6141   4.6493   4.6845   4.7198   4.7551
 PRANDTL NUMBER    0.6969   0.6970   0.6972   0.6949   0.6951   0.6952   0.6954   0.6956

 MOLE FRACTIONS

 *H2              1.00000  1.00000  1.00000  1.00000  1.00000  1.00000  1.00000  1.00000

  * THERMODYNAMIC PROPERTIES FITTED TO 20000.K

 NOTE. WEIGHT FRACTION OF FUEL IN TOTAL FUELS AND OF OXIDANT IN TOTAL OXIDANTS









               THERMODYNAMIC EQUILIBRIUM PROPERTIES AT ASSIGNED

                           TEMPERATURE AND PRESSURE

 CASE =                

             REACTANT                    WT FRACTION      ENERGY      TEMP
                                          (SEE NOTE)     KJ/KG-MOL      K  
             H2                           1.0000000         0.000      0.000

 O/F=    0.00000  %FUEL=100.000000  R,EQ.RATIO= 0.000000  PHI,EQ.RATIO= 0.000000

 THERMODYNAMIC PROPERTIES

 P, BAR            10.000   10.000   10.000   10.000   10.000   10.000   10.000   10.000
 T, K             1100.00  1110.00  1120.00  1130.00  1140.00  1150.00  1160.00  1170.00
 RHO, KG/CU M    2.2041-1 2.1843-1 2.1648-1 2.1456-1 2.1268-1 2.1083-1 2.0901-1 2.0723-1
 H, KJ/KG         11765.1  11916.9  12068.8  12220.9  12373.2  12525.8  12678.5  12831.5
 U, KJ/KG         7228.18  7338.67  7449.36  7560.24  7671.33  7782.62  7894.12  8005.83
 G, KJ/KG        -70067.0 -70811.6 -71557.6 -72305.0 -73053.7 -73803.7 -74555.0 -75307.7
 S, KJ/(KG)(K)    74.3929  74.5302  74.6664  74.8017  74.9359  75.0691  75.2014  75.3326

 M, (1/n)           2.016    2.016    2.016    2.016    2.016    2.016    2.016    2.016
 (dLV/dLP)t      -1.00000 -1.00000 -1.00000 -1.00000 -1.00000 -1.00000 -1.00000 -1.00000
 (dLV/dLT)p        1.0000   1.0000   1.0000   1.0000   1.0000   1.0000   1.0000   1.0000
 Cp, KJ/(KG)(K)   15.1633  15.1830  15.2030  15.2231  15.2435  15.2641  15.2849  15.3058
 GAMMAs            1.3736   1.3730   1.3723   1.3716   1.3709   1.3703   1.3696   1.3689
 SON VEL,M/SEC     2496.4   2507.1   2517.8   2528.4   2538.9   2549.4   2559.8   2570.2

 TRANSPORT PROPERTIES (GASES ONLY)
   CONDUCTIVITY IN UNITS OF MILLIWATTS/(CM)(K)

 VISC,MILLIPOISE  0.21980  0.22120  0.22258  0.22396  0.22534  0.22671  0.22808  0.22944

  WITH EQUILIBRIUM REACTIONS

 Cp, KJ/(KG)(K)   15.1633  15.1830  15.2030  15.2231  15.2435  15.2641  15.2849  15.3058
 CONDUCTIVITY      4.7905   4.8259   4.8614   4.8969   4.9324   4.9680   5.0036   5.0393
 PRANDTL NUMBER    0.6957   0.6959   0.6961   0.6962   0.6964   0.6966   0.6967   0.6969

  WITH FROZEN REACTIONS

 Cp, KJ/(KG)(K)   15.1633  15.1830  15.2029  15.2231  15.2435  15.2641  15.2848  15.3057
 CONDUCTIVITY      4.7905   4.8259   4.8614   4.8969   4.9324   4.9680   5.0036   5.0393
 PRANDTL NUMBER    0.6957   0.6959   0.6961   0.6962   0.6964   0.6966   0.6967   0.6969

 MOLE FRACTIONS

 *H2              1.00000  1.00000  1.00000  1.00000  1.00000  1.00000  1.00000  1.00000

  * THERMODYNAMIC PROPERTIES FITTED TO 20000.K

 NOTE. WEIGHT FRACTION OF FUEL IN TOTAL FUELS AND OF OXIDANT IN TOTAL OXIDANTS









               THERMODYNAMIC EQUILIBRIUM PROPERTIES AT ASSIGNED

                           TEMPERATURE AND PRESSURE

 CASE =                

             REACTANT                    WT FRACTION      ENERGY      TEMP
                                          (SEE NOTE)     KJ/KG-MOL      K  
             H2                           1.0000000         0.000      0.000

 O/F=    0.00000  %FUEL=100.000000  R,EQ.RATIO= 0.000000  PHI,EQ.RATIO= 0.000000

 THERMODYNAMIC PROPERTIES

 P, BAR            10.000   10.000   11.000   11.000   11.000   11.000   11.000   11.000
 T, K             1180.00  1190.00  1050.00  1060.00  1070.00  1080.00  1090.00  1100.00
 RHO, KG/CU M    2.0547-1 2.0374-1 2.5400-1 2.5160-1 2.4925-1 2.4694-1 2.4468-1 2.4245-1
 H, KJ/KG         12984.6  13138.0  11009.4  11160.1  11311.1  11462.2  11613.6  11765.1
 U, KJ/KG         8117.75  8229.88  6678.63  6788.17  6897.89  7007.80  7117.89  7228.18
 G, KJ/KG        -76061.7 -76817.0 -65952.2 -66685.8 -67420.9 -68157.4 -68895.3 -69634.6
 S, KJ/(KG)(K)    75.4630  75.5924  73.2967  73.4396  73.5813  73.7219  73.8614  73.9998

 M, (1/n)           2.016    2.016    2.016    2.016    2.016    2.016    2.016    2.016
 (dLV/dLP)t      -1.00000 -1.00000 -1.00000 -1.00000 -1.00000 -1.00000 -1.00000 -1.00000
 (dLV/dLT)p        1.0000   1.0000   1.0000   1.0000   1.0000   1.0000   1.0000   1.0000
 Cp, KJ/(KG)(K)   15.3269  15.3481  15.0691  15.0872  15.1058  15.1247  15.1438  15.1633
 GAMMAs            1.3682   1.3675   1.3769   1.3762   1.3756   1.3750   1.3743   1.3736
 SON VEL,M/SEC     2580.5   2590.7   2441.9   2452.9   2463.9   2474.8   2485.6   2496.4

 TRANSPORT PROPERTIES (GASES ONLY)
   CONDUCTIVITY IN UNITS OF MILLIWATTS/(CM)(K)

 VISC,MILLIPOISE  0.23080  0.23215  0.21277  0.21419  0.21560  0.21701  0.21841  0.21980

  WITH EQUILIBRIUM REACTIONS

 Cp, KJ/(KG)(K)   15.3269  15.3481  15.0691  15.0873  15.1058  15.1247  15.1438  15.1633
 CONDUCTIVITY      5.0750   5.1108   4.6141   4.6493   4.6845   4.7198   4.7551   4.7905
 PRANDTL NUMBER    0.6970   0.6972   0.6949   0.6951   0.6952   0.6954   0.6956   0.6957

  WITH FROZEN REACTIONS

 Cp, KJ/(KG)(K)   15.3268  15.3480  15.0691  15.0872  15.1058  15.1247  15.1438  15.1633
 CONDUCTIVITY      5.0750   5.1107   4.6141   4.6493   4.6845   4.7198   4.7551   4.7905
 PRANDTL NUMBER    0.6970   0.6972   0.6949   0.6951   0.6952   0.6954   0.6956   0.6957

 MOLE FRACTIONS

 *H2              1.00000  1.00000  1.00000  1.00000  1.00000  1.00000  1.00000  1.00000

  * THERMODYNAMIC PROPERTIES FITTED TO 20000.K

 NOTE. WEIGHT FRACTION OF FUEL IN TOTAL FUELS AND OF OXIDANT IN TOTAL OXIDANTS









               THERMODYNAMIC EQUILIBRIUM PROPERTIES AT ASSIGNED

                           TEMPERATURE AND PRESSURE

 CASE =                

             REACTANT                    WT FRACTION      ENERGY      TEMP
                                          (SEE NOTE)     KJ/KG-MOL      K  
             H2                           1.0000000         0.000      0.000

 O/F=    0.00000  %FUEL=100.000000  R,EQ.RATIO= 0.000000  PHI,EQ.RATIO= 0.000000

 THERMODYNAMIC PROPERTIES

 P, BAR            11.000   11.000   11.000   11.000   11.000   11.000   11.000   11.000
 T, K             1110.00  1120.00  1130.00  1140.00  1150.00  1160.00  1170.00  1180.00
 RHO, KG/CU M    2.4027-1 2.3812-1 2.3602-1 2.3395-1 2.3191-1 2.2991-1 2.2795-1 2.2602-1
 H, KJ/KG         11916.8  12068.8  12220.9  12373.2  12525.8  12678.5  12831.5  12984.6
 U, KJ/KG         7338.67  7449.36  7560.24  7671.33  7782.62  7894.12  8005.83  8117.75
 G, KJ/KG        -70375.3 -71117.4 -71860.8 -72605.5 -73351.6 -74099.0 -74847.8 -75597.8
 S, KJ/(KG)(K)    74.1371  74.2733  74.4086  74.5428  74.6760  74.8082  74.9395  75.0699

 M, (1/n)           2.016    2.016    2.016    2.016    2.016    2.016    2.016    2.016
 (dLV/dLP)t      -1.00000 -1.00000 -1.00000 -1.00000 -1.00000 -1.00000 -1.00000 -1.00000
 (dLV/dLT)p        1.0000   1.0000   1.0000   1.0000   1.0000   1.0000   1.0000   1.0000
 Cp, KJ/(KG)(K)   15.1830  15.2030  15.2231  15.2435  15.2641  15.2849  15.3058  15.3269
 GAMMAs            1.3730   1.3723   1.3716   1.3709   1.3703   1.3696   1.3689   1.3682
 SON VEL,M/SEC     2507.1   2517.8   2528.4   2538.9   2549.4   2559.8   2570.2   2580.5

 TRANSPORT PROPERTIES (GASES ONLY)
   CONDUCTIVITY IN UNITS OF MILLIWATTS/(CM)(K)

 VISC,MILLIPOISE  0.22120  0.22258  0.22396  0.22534  0.22671  0.22808  0.22944  0.23080

  WITH EQUILIBRIUM REACTIONS

 Cp, KJ/(KG)(K)   15.1830  15.2030  15.2231  15.2435  15.2641  15.2849  15.3058  15.3269
 CONDUCTIVITY      4.8259   4.8614   4.8969   4.9324   4.9680   5.0036   5.0393   5.0750
 PRANDTL NUMBER    0.6959   0.6961   0.6962   0.6964   0.6966   0.6967   0.6969   0.6970

  WITH FROZEN REACTIONS

 Cp, KJ/(KG)(K)   15.1830  15.2029  15.2231  15.2435  15.2641  15.2848  15.3057  15.3268
 CONDUCTIVITY      4.8259   4.8614   4.8969   4.9324   4.9680   5.0036   5.0393   5.0750
 PRANDTL NUMBER    0.6959   0.6961   0.6962   0.6964   0.6966   0.6967   0.6969   0.6970

 MOLE FRACTIONS

 *H2              1.00000  1.00000  1.00000  1.00000  1.00000  1.00000  1.00000  1.00000

  * THERMODYNAMIC PROPERTIES FITTED TO 20000.K

 NOTE. WEIGHT FRACTION OF FUEL IN TOTAL FUELS AND OF OXIDANT IN TOTAL OXIDANTS









               THERMODYNAMIC EQUILIBRIUM PROPERTIES AT ASSIGNED

                           TEMPERATURE AND PRESSURE

 CASE =                

             REACTANT                    WT FRACTION      ENERGY      TEMP
                                          (SEE NOTE)     KJ/KG-MOL      K  
             H2                           1.0000000         0.000      0.000

 O/F=    0.00000  %FUEL=100.000000  R,EQ.RATIO= 0.000000  PHI,EQ.RATIO= 0.000000

 THERMODYNAMIC PROPERTIES

 P, BAR            11.000
 T, K             1190.00
 RHO, KG/CU M    2.2412-1
 H, KJ/KG         13138.0
 U, KJ/KG         8229.88
 G, KJ/KG        -76349.2
 S, KJ/(KG)(K)    75.1993

 M, (1/n)           2.016
 (dLV/dLP)t      -1.00000
 (dLV/dLT)p        1.0000
 Cp, KJ/(KG)(K)   15.3481
 GAMMAs            1.3675
 SON VEL,M/SEC     2590.7

 TRANSPORT PROPERTIES (GASES ONLY)
   CONDUCTIVITY IN UNITS OF MILLIWATTS/(CM)(K)

 VISC,MILLIPOISE  0.23215

  WITH EQUILIBRIUM REACTIONS

 Cp, KJ/(KG)(K)   15.3481
 CONDUCTIVITY      5.1108
 PRANDTL NUMBER    0.6972

  WITH FROZEN REACTIONS

 Cp, KJ/(KG)(K)   15.3480
 CONDUCTIVITY      5.1107
 PRANDTL NUMBER    0.6972

 MOLE FRACTIONS

 *H2              1.00000

  * THERMODYNAMIC PROPERTIES FITTED TO 20000.K

 NOTE. WEIGHT FRACTION OF FUEL IN TOTAL FUELS AND OF OXIDANT IN TOTAL OXIDANTS



  
