
 *******************************************************************************

         NASA-GLENN CHEMICAL EQUILIBRIUM PROGRAM CEA2, MAY 21, 2004
                   BY  BONNIE MCBRIDE AND SANFORD GORDON
      REFS: NASA RP-1311, PART I, 1994 AND NASA RP-1311, PART II, 1996

 *******************************************************************************



  prob tp ions
  p,bar= 0.0049,0.0054,0.006,0.0067,0.0074,0.00825,0.0091,0.01,0.011,0.012,0.0132
 ,0.0148,0.0165,0.018,0.02
  t,k= 575,580,585,590,595,600,605,610,615,620,625,630,635,640,645
  
  reac
  na H2                wt%=100.0000
  
  output short
  output siunits
  output transport
  
 end





               THERMODYNAMIC EQUILIBRIUM PROPERTIES AT ASSIGNED

                           TEMPERATURE AND PRESSURE

 CASE =                

             REACTANT                    WT FRACTION      ENERGY      TEMP
                                          (SEE NOTE)     KJ/KG-MOL      K  
             H2                           1.0000000         0.000      0.000

 O/F=    0.00000  %FUEL=100.000000  R,EQ.RATIO= 0.000000  PHI,EQ.RATIO= 0.000000

 THERMODYNAMIC PROPERTIES

 P, BAR           0.00490  0.00490  0.00490  0.00490  0.00490  0.00490  0.00490  0.00490
 T, K              575.00   580.00   585.00   590.00   595.00   600.00   605.00   610.00
 RHO, KG/CU M    2.0661-4 2.0483-4 2.0308-4 2.0136-4 1.9967-4 1.9800-4 1.9637-4 1.9476-4
 H, KJ/KG         4007.20  4079.86  4152.54  4225.23  4297.93  4370.65  4443.37  4516.11
 U, KJ/KG         1635.61  1687.66  1739.71  1791.78  1843.86  1895.95  1948.05  2000.17
 G, KJ/KG        -51343.4 -51825.0 -52307.2 -52790.1 -53273.5 -53757.6 -54242.4 -54727.7
 S, KJ/(KG)(K)    96.2620  96.3877  96.5124  96.6361  96.7588  96.8805  97.0012  97.1209

 M, (1/n)           2.016    2.016    2.016    2.016    2.016    2.016    2.016    2.016
 (dLV/dLP)t      -1.00000 -1.00000 -1.00000 -1.00000 -1.00000 -1.00000 -1.00000 -1.00000
 (dLV/dLT)p        1.0000   1.0000   1.0000   1.0000   1.0000   1.0000   1.0000   1.0000
 Cp, KJ/(KG)(K)   14.5330  14.5350  14.5370  14.5391  14.5413  14.5436  14.5460  14.5484
 GAMMAs            1.3963   1.3962   1.3961   1.3960   1.3960   1.3959   1.3958   1.3957
 SON VEL,M/SEC     1819.7   1827.6   1835.4   1843.1   1850.9   1858.6   1866.3   1873.9

 TRANSPORT PROPERTIES (GASES ONLY)
   CONDUCTIVITY IN UNITS OF MILLIWATTS/(CM)(K)

 VISC,MILLIPOISE  0.13959  0.14044  0.14128  0.14211  0.14294  0.14377  0.14460  0.14542

  WITH EQUILIBRIUM REACTIONS

 Cp, KJ/(KG)(K)   14.5330  14.5350  14.5370  14.5391  14.5413  14.5436  14.5460  14.5484
 CONDUCTIVITY      2.9434   2.9623   2.9804   2.9984   3.0163   3.0342   3.0520   3.0698
 PRANDTL NUMBER    0.6892   0.6891   0.6891   0.6891   0.6891   0.6891   0.6892   0.6892

  WITH FROZEN REACTIONS

 Cp, KJ/(KG)(K)   14.5330  14.5350  14.5370  14.5391  14.5413  14.5436  14.5460  14.5484
 CONDUCTIVITY      2.9434   2.9623   2.9804   2.9984   3.0163   3.0342   3.0520   3.0698
 PRANDTL NUMBER    0.6892   0.6891   0.6891   0.6891   0.6891   0.6891   0.6892   0.6892

 MOLE FRACTIONS

 *H2              1.00000  1.00000  1.00000  1.00000  1.00000  1.00000  1.00000  1.00000

  * THERMODYNAMIC PROPERTIES FITTED TO 20000.K

 NOTE. WEIGHT FRACTION OF FUEL IN TOTAL FUELS AND OF OXIDANT IN TOTAL OXIDANTS









               THERMODYNAMIC EQUILIBRIUM PROPERTIES AT ASSIGNED

                           TEMPERATURE AND PRESSURE

 CASE =                

             REACTANT                    WT FRACTION      ENERGY      TEMP
                                          (SEE NOTE)     KJ/KG-MOL      K  
             H2                           1.0000000         0.000      0.000

 O/F=    0.00000  %FUEL=100.000000  R,EQ.RATIO= 0.000000  PHI,EQ.RATIO= 0.000000

 THERMODYNAMIC PROPERTIES

 P, BAR           0.00490  0.00490  0.00490  0.00490  0.00490  0.00490  0.00490  0.00540
 T, K              615.00   620.00   625.00   630.00   635.00   640.00   645.00   575.00
 RHO, KG/CU M    1.9317-4 1.9162-4 1.9008-4 1.8858-4 1.8709-4 1.8563-4 1.8419-4 2.2770-4
 H, KJ/KG         4588.85  4661.62  4734.39  4807.18  4879.98  4952.80  5025.63  4007.19
 U, KJ/KG         2052.29  2104.43  2156.58  2208.75  2260.93  2313.12  2365.33  1635.61
 G, KJ/KG        -55213.6 -55700.1 -56187.1 -56674.8 -57163.0 -57651.8 -58141.2 -51112.9
 S, KJ/(KG)(K)    97.2397  97.3575  97.4744  97.5904  97.7055  97.8198  97.9331  95.8611

 M, (1/n)           2.016    2.016    2.016    2.016    2.016    2.016    2.016    2.016
 (dLV/dLP)t      -1.00000 -1.00000 -1.00000 -1.00000 -1.00000 -1.00000 -1.00000 -1.00000
 (dLV/dLT)p        1.0000   1.0000   1.0000   1.0000   1.0000   1.0000   1.0000   1.0000
 Cp, KJ/(KG)(K)   14.5509  14.5535  14.5562  14.5590  14.5618  14.5648  14.5678  14.5330
 GAMMAs            1.3956   1.3955   1.3954   1.3953   1.3952   1.3951   1.3949   1.3963
 SON VEL,M/SEC     1881.5   1889.1   1896.6   1904.1   1911.6   1919.0   1926.4   1819.7

 TRANSPORT PROPERTIES (GASES ONLY)
   CONDUCTIVITY IN UNITS OF MILLIWATTS/(CM)(K)

 VISC,MILLIPOISE  0.14625  0.14707  0.14789  0.14871  0.14952  0.15034  0.15115  0.13960

  WITH EQUILIBRIUM REACTIONS

 Cp, KJ/(KG)(K)   14.5509  14.5535  14.5562  14.5590  14.5618  14.5648  14.5678  14.5330
 CONDUCTIVITY      3.0876   3.1054   3.1232   3.1410   3.1587   3.1764   3.1942   2.9442
 PRANDTL NUMBER    0.6892   0.6892   0.6893   0.6893   0.6893   0.6893   0.6894   0.6891

  WITH FROZEN REACTIONS

 Cp, KJ/(KG)(K)   14.5509  14.5535  14.5562  14.5590  14.5618  14.5648  14.5678  14.5330
 CONDUCTIVITY      3.0876   3.1054   3.1232   3.1410   3.1587   3.1764   3.1942   2.9442
 PRANDTL NUMBER    0.6892   0.6892   0.6893   0.6893   0.6893   0.6893   0.6894   0.6891

 MOLE FRACTIONS

 *H2              1.00000  1.00000  1.00000  1.00000  1.00000  1.00000  1.00000  1.00000

  * THERMODYNAMIC PROPERTIES FITTED TO 20000.K

 NOTE. WEIGHT FRACTION OF FUEL IN TOTAL FUELS AND OF OXIDANT IN TOTAL OXIDANTS









               THERMODYNAMIC EQUILIBRIUM PROPERTIES AT ASSIGNED

                           TEMPERATURE AND PRESSURE

 CASE =                

             REACTANT                    WT FRACTION      ENERGY      TEMP
                                          (SEE NOTE)     KJ/KG-MOL      K  
             H2                           1.0000000         0.000      0.000

 O/F=    0.00000  %FUEL=100.000000  R,EQ.RATIO= 0.000000  PHI,EQ.RATIO= 0.000000

 THERMODYNAMIC PROPERTIES

 P, BAR           0.00540  0.00540  0.00540  0.00540  0.00540  0.00540  0.00540  0.00540
 T, K              580.00   585.00   590.00   595.00   600.00   605.00   610.00   615.00
 RHO, KG/CU M    2.2573-4 2.2380-4 2.2191-4 2.2004-4 2.1821-4 2.1641-4 2.1463-4 2.1289-4
 H, KJ/KG         4079.86  4152.54  4225.23  4297.93  4370.65  4443.37  4516.11  4588.85
 U, KJ/KG         1687.66  1739.71  1791.78  1843.86  1895.95  1948.05  2000.17  2052.29
 G, KJ/KG        -51592.5 -52072.8 -52553.6 -53035.1 -53517.2 -53999.9 -54483.2 -54967.1
 S, KJ/(KG)(K)    95.9869  96.1116  96.2353  96.3580  96.4797  96.6004  96.7202  96.8389

 M, (1/n)           2.016    2.016    2.016    2.016    2.016    2.016    2.016    2.016
 (dLV/dLP)t      -1.00000 -1.00000 -1.00000 -1.00000 -1.00000 -1.00000 -1.00000 -1.00000
 (dLV/dLT)p        1.0000   1.0000   1.0000   1.0000   1.0000   1.0000   1.0000   1.0000
 Cp, KJ/(KG)(K)   14.5350  14.5370  14.5391  14.5413  14.5436  14.5460  14.5484  14.5509
 GAMMAs            1.3962   1.3961   1.3960   1.3960   1.3959   1.3958   1.3957   1.3956
 SON VEL,M/SEC     1827.6   1835.4   1843.1   1850.9   1858.6   1866.3   1873.9   1881.5

 TRANSPORT PROPERTIES (GASES ONLY)
   CONDUCTIVITY IN UNITS OF MILLIWATTS/(CM)(K)

 VISC,MILLIPOISE  0.14044  0.14128  0.14211  0.14294  0.14377  0.14460  0.14542  0.14625

  WITH EQUILIBRIUM REACTIONS

 Cp, KJ/(KG)(K)   14.5350  14.5370  14.5391  14.5413  14.5436  14.5460  14.5484  14.5509
 CONDUCTIVITY      2.9625   2.9805   2.9984   3.0163   3.0342   3.0520   3.0698   3.0876
 PRANDTL NUMBER    0.6891   0.6891   0.6891   0.6891   0.6891   0.6892   0.6892   0.6892

  WITH FROZEN REACTIONS

 Cp, KJ/(KG)(K)   14.5350  14.5370  14.5391  14.5413  14.5436  14.5460  14.5484  14.5509
 CONDUCTIVITY      2.9625   2.9805   2.9984   3.0163   3.0342   3.0520   3.0698   3.0876
 PRANDTL NUMBER    0.6891   0.6891   0.6891   0.6891   0.6891   0.6892   0.6892   0.6892

 MOLE FRACTIONS

 *H2              1.00000  1.00000  1.00000  1.00000  1.00000  1.00000  1.00000  1.00000

  * THERMODYNAMIC PROPERTIES FITTED TO 20000.K

 NOTE. WEIGHT FRACTION OF FUEL IN TOTAL FUELS AND OF OXIDANT IN TOTAL OXIDANTS









               THERMODYNAMIC EQUILIBRIUM PROPERTIES AT ASSIGNED

                           TEMPERATURE AND PRESSURE

 CASE =                

             REACTANT                    WT FRACTION      ENERGY      TEMP
                                          (SEE NOTE)     KJ/KG-MOL      K  
             H2                           1.0000000         0.000      0.000

 O/F=    0.00000  %FUEL=100.000000  R,EQ.RATIO= 0.000000  PHI,EQ.RATIO= 0.000000

 THERMODYNAMIC PROPERTIES

 P, BAR           0.00540  0.00540  0.00540  0.00540  0.00540  0.00540  0.00600  0.00600
 T, K              620.00   625.00   630.00   635.00   640.00   645.00   575.00   580.00
 RHO, KG/CU M    2.1117-4 2.0948-4 2.0782-4 2.0618-4 2.0457-4 2.0298-4 2.5300-4 2.5081-4
 H, KJ/KG         4661.62  4734.39  4807.18  4879.98  4952.80  5025.63  4007.19  4079.86
 U, KJ/KG         2104.43  2156.58  2208.75  2260.93  2313.12  2365.33  1635.61  1687.66
 G, KJ/KG        -55451.6 -55936.7 -56422.3 -56908.6 -57395.4 -57882.7 -50863.1 -51340.5
 S, KJ/(KG)(K)    96.9568  97.0737  97.1897  97.3048  97.4190  97.5324  95.4265  95.5523

 M, (1/n)           2.016    2.016    2.016    2.016    2.016    2.016    2.016    2.016
 (dLV/dLP)t      -1.00000 -1.00000 -1.00000 -1.00000 -1.00000 -1.00000 -1.00000 -1.00000
 (dLV/dLT)p        1.0000   1.0000   1.0000   1.0000   1.0000   1.0000   1.0000   1.0000
 Cp, KJ/(KG)(K)   14.5535  14.5562  14.5590  14.5618  14.5648  14.5678  14.5330  14.5350
 GAMMAs            1.3955   1.3954   1.3953   1.3952   1.3951   1.3949   1.3963   1.3962
 SON VEL,M/SEC     1889.1   1896.6   1904.1   1911.6   1919.0   1926.4   1819.7   1827.6

 TRANSPORT PROPERTIES (GASES ONLY)
   CONDUCTIVITY IN UNITS OF MILLIWATTS/(CM)(K)

 VISC,MILLIPOISE  0.14707  0.14789  0.14871  0.14952  0.15034  0.15115  0.13960  0.14044

  WITH EQUILIBRIUM REACTIONS

 Cp, KJ/(KG)(K)   14.5535  14.5562  14.5590  14.5618  14.5648  14.5678  14.5330  14.5350
 CONDUCTIVITY      3.1054   3.1232   3.1410   3.1587   3.1764   3.1942   2.9442   2.9625
 PRANDTL NUMBER    0.6892   0.6893   0.6893   0.6893   0.6893   0.6894   0.6891   0.6891

  WITH FROZEN REACTIONS

 Cp, KJ/(KG)(K)   14.5535  14.5562  14.5590  14.5618  14.5648  14.5678  14.5330  14.5350
 CONDUCTIVITY      3.1054   3.1232   3.1410   3.1587   3.1764   3.1942   2.9442   2.9625
 PRANDTL NUMBER    0.6892   0.6893   0.6893   0.6893   0.6893   0.6894   0.6891   0.6891

 MOLE FRACTIONS

 *H2              1.00000  1.00000  1.00000  1.00000  1.00000  1.00000  1.00000  1.00000

  * THERMODYNAMIC PROPERTIES FITTED TO 20000.K

 NOTE. WEIGHT FRACTION OF FUEL IN TOTAL FUELS AND OF OXIDANT IN TOTAL OXIDANTS









               THERMODYNAMIC EQUILIBRIUM PROPERTIES AT ASSIGNED

                           TEMPERATURE AND PRESSURE

 CASE =                

             REACTANT                    WT FRACTION      ENERGY      TEMP
                                          (SEE NOTE)     KJ/KG-MOL      K  
             H2                           1.0000000         0.000      0.000

 O/F=    0.00000  %FUEL=100.000000  R,EQ.RATIO= 0.000000  PHI,EQ.RATIO= 0.000000

 THERMODYNAMIC PROPERTIES

 P, BAR           0.00600  0.00600  0.00600  0.00600  0.00600  0.00600  0.00600  0.00600
 T, K              585.00   590.00   595.00   600.00   605.00   610.00   615.00   620.00
 RHO, KG/CU M    2.4867-4 2.4656-4 2.4449-4 2.4245-4 2.4045-4 2.3848-4 2.3654-4 2.3463-4
 H, KJ/KG         4152.54  4225.23  4297.93  4370.65  4443.37  4516.11  4588.85  4661.62
 U, KJ/KG         1739.71  1791.78  1843.86  1895.95  1948.05  2000.17  2052.29  2104.43
 G, KJ/KG        -51818.5 -52297.2 -52776.5 -53256.5 -53737.0 -54218.1 -54699.8 -55182.2
 S, KJ/(KG)(K)    95.6771  95.8008  95.9235  96.0452  96.1659  96.2856  96.4044  96.5222

 M, (1/n)           2.016    2.016    2.016    2.016    2.016    2.016    2.016    2.016
 (dLV/dLP)t      -1.00000 -1.00000 -1.00000 -1.00000 -1.00000 -1.00000 -1.00000 -1.00000
 (dLV/dLT)p        1.0000   1.0000   1.0000   1.0000   1.0000   1.0000   1.0000   1.0000
 Cp, KJ/(KG)(K)   14.5370  14.5391  14.5413  14.5436  14.5460  14.5484  14.5509  14.5535
 GAMMAs            1.3961   1.3960   1.3960   1.3959   1.3958   1.3957   1.3956   1.3955
 SON VEL,M/SEC     1835.4   1843.1   1850.9   1858.6   1866.3   1873.9   1881.5   1889.1

 TRANSPORT PROPERTIES (GASES ONLY)
   CONDUCTIVITY IN UNITS OF MILLIWATTS/(CM)(K)

 VISC,MILLIPOISE  0.14128  0.14211  0.14294  0.14377  0.14460  0.14542  0.14625  0.14707

  WITH EQUILIBRIUM REACTIONS

 Cp, KJ/(KG)(K)   14.5370  14.5391  14.5413  14.5436  14.5460  14.5484  14.5509  14.5535
 CONDUCTIVITY      2.9805   2.9984   3.0163   3.0342   3.0520   3.0698   3.0876   3.1054
 PRANDTL NUMBER    0.6891   0.6891   0.6891   0.6891   0.6892   0.6892   0.6892   0.6892

  WITH FROZEN REACTIONS

 Cp, KJ/(KG)(K)   14.5370  14.5391  14.5413  14.5436  14.5460  14.5484  14.5509  14.5535
 CONDUCTIVITY      2.9805   2.9984   3.0163   3.0342   3.0520   3.0698   3.0876   3.1054
 PRANDTL NUMBER    0.6891   0.6891   0.6891   0.6891   0.6892   0.6892   0.6892   0.6892

 MOLE FRACTIONS

 *H2              1.00000  1.00000  1.00000  1.00000  1.00000  1.00000  1.00000  1.00000

  * THERMODYNAMIC PROPERTIES FITTED TO 20000.K

 NOTE. WEIGHT FRACTION OF FUEL IN TOTAL FUELS AND OF OXIDANT IN TOTAL OXIDANTS









               THERMODYNAMIC EQUILIBRIUM PROPERTIES AT ASSIGNED

                           TEMPERATURE AND PRESSURE

 CASE =                

             REACTANT                    WT FRACTION      ENERGY      TEMP
                                          (SEE NOTE)     KJ/KG-MOL      K  
             H2                           1.0000000         0.000      0.000

 O/F=    0.00000  %FUEL=100.000000  R,EQ.RATIO= 0.000000  PHI,EQ.RATIO= 0.000000

 THERMODYNAMIC PROPERTIES

 P, BAR           0.00600  0.00600  0.00600  0.00600  0.00600  0.00670  0.00670  0.00670
 T, K              625.00   630.00   635.00   640.00   645.00   575.00   580.00   585.00
 RHO, KG/CU M    2.3276-4 2.3091-4 2.2909-4 2.2730-4 2.2554-4 2.8251-4 2.8008-4 2.7768-4
 H, KJ/KG         4734.39  4807.18  4879.98  4952.80  5025.63  4007.19  4079.86  4152.54
 U, KJ/KG         2156.58  2208.75  2260.93  2313.12  2365.33  1635.61  1687.66  1739.71
 G, KJ/KG        -55665.1 -56148.5 -56632.6 -57117.2 -57602.5 -50601.4 -51076.5 -51552.3
 S, KJ/(KG)(K)    96.6391  96.7551  96.8702  96.9844  97.0978  94.9714  95.0972  95.2219

 M, (1/n)           2.016    2.016    2.016    2.016    2.016    2.016    2.016    2.016
 (dLV/dLP)t      -1.00000 -1.00000 -1.00000 -1.00000 -1.00000 -1.00000 -1.00000 -1.00000
 (dLV/dLT)p        1.0000   1.0000   1.0000   1.0000   1.0000   1.0000   1.0000   1.0000
 Cp, KJ/(KG)(K)   14.5562  14.5590  14.5618  14.5648  14.5678  14.5330  14.5350  14.5370
 GAMMAs            1.3954   1.3953   1.3952   1.3951   1.3949   1.3963   1.3962   1.3961
 SON VEL,M/SEC     1896.6   1904.1   1911.6   1919.0   1926.4   1819.7   1827.6   1835.4

 TRANSPORT PROPERTIES (GASES ONLY)
   CONDUCTIVITY IN UNITS OF MILLIWATTS/(CM)(K)

 VISC,MILLIPOISE  0.14789  0.14871  0.14952  0.15034  0.15115  0.13960  0.14044  0.14128

  WITH EQUILIBRIUM REACTIONS

 Cp, KJ/(KG)(K)   14.5562  14.5590  14.5618  14.5648  14.5678  14.5330  14.5350  14.5370
 CONDUCTIVITY      3.1232   3.1410   3.1587   3.1764   3.1942   2.9442   2.9625   2.9805
 PRANDTL NUMBER    0.6893   0.6893   0.6893   0.6893   0.6894   0.6891   0.6891   0.6891

  WITH FROZEN REACTIONS

 Cp, KJ/(KG)(K)   14.5562  14.5590  14.5618  14.5648  14.5678  14.5330  14.5350  14.5370
 CONDUCTIVITY      3.1232   3.1410   3.1587   3.1764   3.1942   2.9442   2.9625   2.9805
 PRANDTL NUMBER    0.6893   0.6893   0.6893   0.6893   0.6894   0.6891   0.6891   0.6891

 MOLE FRACTIONS

 *H2              1.00000  1.00000  1.00000  1.00000  1.00000  1.00000  1.00000  1.00000

  * THERMODYNAMIC PROPERTIES FITTED TO 20000.K

 NOTE. WEIGHT FRACTION OF FUEL IN TOTAL FUELS AND OF OXIDANT IN TOTAL OXIDANTS









               THERMODYNAMIC EQUILIBRIUM PROPERTIES AT ASSIGNED

                           TEMPERATURE AND PRESSURE

 CASE =                

             REACTANT                    WT FRACTION      ENERGY      TEMP
                                          (SEE NOTE)     KJ/KG-MOL      K  
             H2                           1.0000000         0.000      0.000

 O/F=    0.00000  %FUEL=100.000000  R,EQ.RATIO= 0.000000  PHI,EQ.RATIO= 0.000000

 THERMODYNAMIC PROPERTIES

 P, BAR           0.00670  0.00670  0.00670  0.00670  0.00670  0.00670  0.00670  0.00670
 T, K              590.00   595.00   600.00   605.00   610.00   615.00   620.00   625.00
 RHO, KG/CU M    2.7533-4 2.7302-4 2.7074-4 2.6850-4 2.6630-4 2.6414-4 2.6201-4 2.5991-4
 H, KJ/KG         4225.23  4297.93  4370.65  4443.37  4516.11  4588.85  4661.62  4734.39
 U, KJ/KG         1791.78  1843.86  1895.95  1948.05  2000.17  2052.29  2104.43  2156.58
 G, KJ/KG        -52028.7 -52505.7 -52983.4 -53461.6 -53940.5 -54419.9 -54900.0 -55380.6
 S, KJ/(KG)(K)    95.3456  95.4683  95.5900  95.7107  95.8305  95.9493  96.0671  96.1840

 M, (1/n)           2.016    2.016    2.016    2.016    2.016    2.016    2.016    2.016
 (dLV/dLP)t      -1.00000 -1.00000 -1.00000 -1.00000 -1.00000 -1.00000 -1.00000 -1.00000
 (dLV/dLT)p        1.0000   1.0000   1.0000   1.0000   1.0000   1.0000   1.0000   1.0000
 Cp, KJ/(KG)(K)   14.5391  14.5413  14.5436  14.5460  14.5484  14.5509  14.5535  14.5562
 GAMMAs            1.3960   1.3960   1.3959   1.3958   1.3957   1.3956   1.3955   1.3954
 SON VEL,M/SEC     1843.1   1850.9   1858.6   1866.3   1873.9   1881.5   1889.1   1896.6

 TRANSPORT PROPERTIES (GASES ONLY)
   CONDUCTIVITY IN UNITS OF MILLIWATTS/(CM)(K)

 VISC,MILLIPOISE  0.14211  0.14294  0.14377  0.14460  0.14542  0.14625  0.14707  0.14789

  WITH EQUILIBRIUM REACTIONS

 Cp, KJ/(KG)(K)   14.5391  14.5413  14.5436  14.5460  14.5484  14.5509  14.5535  14.5562
 CONDUCTIVITY      2.9984   3.0163   3.0342   3.0520   3.0698   3.0876   3.1054   3.1232
 PRANDTL NUMBER    0.6891   0.6891   0.6891   0.6892   0.6892   0.6892   0.6892   0.6893

  WITH FROZEN REACTIONS

 Cp, KJ/(KG)(K)   14.5391  14.5413  14.5436  14.5460  14.5484  14.5509  14.5535  14.5562
 CONDUCTIVITY      2.9984   3.0163   3.0342   3.0520   3.0698   3.0876   3.1054   3.1232
 PRANDTL NUMBER    0.6891   0.6891   0.6891   0.6892   0.6892   0.6892   0.6892   0.6893

 MOLE FRACTIONS

 *H2              1.00000  1.00000  1.00000  1.00000  1.00000  1.00000  1.00000  1.00000

  * THERMODYNAMIC PROPERTIES FITTED TO 20000.K

 NOTE. WEIGHT FRACTION OF FUEL IN TOTAL FUELS AND OF OXIDANT IN TOTAL OXIDANTS









               THERMODYNAMIC EQUILIBRIUM PROPERTIES AT ASSIGNED

                           TEMPERATURE AND PRESSURE

 CASE =                

             REACTANT                    WT FRACTION      ENERGY      TEMP
                                          (SEE NOTE)     KJ/KG-MOL      K  
             H2                           1.0000000         0.000      0.000

 O/F=    0.00000  %FUEL=100.000000  R,EQ.RATIO= 0.000000  PHI,EQ.RATIO= 0.000000

 THERMODYNAMIC PROPERTIES

 P, BAR           0.00670  0.00670  0.00670  0.00670  0.00740  0.00740  0.00740  0.00740
 T, K              630.00   635.00   640.00   645.00   575.00   580.00   585.00   590.00
 RHO, KG/CU M    2.5785-4 2.5582-4 2.5382-4 2.5185-4 3.1203-4 3.0934-4 3.0669-4 3.0409-4
 H, KJ/KG         4807.18  4879.98  4952.80  5025.63  4007.19  4079.86  4152.54  4225.23
 U, KJ/KG         2208.75  2260.93  2313.12  2365.33  1635.61  1687.66  1739.71  1791.78
 G, KJ/KG        -55861.8 -56343.6 -56826.0 -57308.9 -50365.7 -50838.8 -51312.5 -51786.9
 S, KJ/(KG)(K)    96.3000  96.4151  96.5293  96.6427  94.5615  94.6873  94.8121  94.9358

 M, (1/n)           2.016    2.016    2.016    2.016    2.016    2.016    2.016    2.016
 (dLV/dLP)t      -1.00000 -1.00000 -1.00000 -1.00000 -1.00000 -1.00000 -1.00000 -1.00000
 (dLV/dLT)p        1.0000   1.0000   1.0000   1.0000   1.0000   1.0000   1.0000   1.0000
 Cp, KJ/(KG)(K)   14.5590  14.5618  14.5648  14.5678  14.5330  14.5350  14.5370  14.5391
 GAMMAs            1.3953   1.3952   1.3951   1.3949   1.3963   1.3962   1.3961   1.3960
 SON VEL,M/SEC     1904.1   1911.6   1919.0   1926.4   1819.7   1827.6   1835.4   1843.1

 TRANSPORT PROPERTIES (GASES ONLY)
   CONDUCTIVITY IN UNITS OF MILLIWATTS/(CM)(K)

 VISC,MILLIPOISE  0.14871  0.14952  0.15034  0.15115  0.13960  0.14044  0.14128  0.14211

  WITH EQUILIBRIUM REACTIONS

 Cp, KJ/(KG)(K)   14.5590  14.5618  14.5648  14.5678  14.5330  14.5350  14.5370  14.5391
 CONDUCTIVITY      3.1410   3.1587   3.1764   3.1942   2.9442   2.9625   2.9805   2.9984
 PRANDTL NUMBER    0.6893   0.6893   0.6893   0.6894   0.6891   0.6891   0.6891   0.6891

  WITH FROZEN REACTIONS

 Cp, KJ/(KG)(K)   14.5590  14.5618  14.5648  14.5678  14.5330  14.5350  14.5370  14.5391
 CONDUCTIVITY      3.1410   3.1587   3.1764   3.1942   2.9442   2.9625   2.9805   2.9984
 PRANDTL NUMBER    0.6893   0.6893   0.6893   0.6894   0.6891   0.6891   0.6891   0.6891

 MOLE FRACTIONS

 *H2              1.00000  1.00000  1.00000  1.00000  1.00000  1.00000  1.00000  1.00000

  * THERMODYNAMIC PROPERTIES FITTED TO 20000.K

 NOTE. WEIGHT FRACTION OF FUEL IN TOTAL FUELS AND OF OXIDANT IN TOTAL OXIDANTS









               THERMODYNAMIC EQUILIBRIUM PROPERTIES AT ASSIGNED

                           TEMPERATURE AND PRESSURE

 CASE =                

             REACTANT                    WT FRACTION      ENERGY      TEMP
                                          (SEE NOTE)     KJ/KG-MOL      K  
             H2                           1.0000000         0.000      0.000

 O/F=    0.00000  %FUEL=100.000000  R,EQ.RATIO= 0.000000  PHI,EQ.RATIO= 0.000000

 THERMODYNAMIC PROPERTIES

 P, BAR           0.00740  0.00740  0.00740  0.00740  0.00740  0.00740  0.00740  0.00740
 T, K              595.00   600.00   605.00   610.00   615.00   620.00   625.00   630.00
 RHO, KG/CU M    3.0154-4 2.9903-4 2.9656-4 2.9412-4 2.9173-4 2.8938-4 2.8707-4 2.8479-4
 H, KJ/KG         4297.93  4370.65  4443.37  4516.11  4588.85  4661.62  4734.39  4807.18
 U, KJ/KG         1843.86  1895.95  1948.05  2000.17  2052.29  2104.43  2156.58  2208.75
 G, KJ/KG        -52261.9 -52737.5 -53213.7 -53690.5 -54167.9 -54645.9 -55124.4 -55603.6
 S, KJ/(KG)(K)    95.0585  95.1802  95.3009  95.4206  95.5394  95.6572  95.7741  95.8901

 M, (1/n)           2.016    2.016    2.016    2.016    2.016    2.016    2.016    2.016
 (dLV/dLP)t      -1.00000 -1.00000 -1.00000 -1.00000 -1.00000 -1.00000 -1.00000 -1.00000
 (dLV/dLT)p        1.0000   1.0000   1.0000   1.0000   1.0000   1.0000   1.0000   1.0000
 Cp, KJ/(KG)(K)   14.5413  14.5436  14.5460  14.5484  14.5509  14.5535  14.5562  14.5590
 GAMMAs            1.3960   1.3959   1.3958   1.3957   1.3956   1.3955   1.3954   1.3953
 SON VEL,M/SEC     1850.9   1858.6   1866.3   1873.9   1881.5   1889.1   1896.6   1904.1

 TRANSPORT PROPERTIES (GASES ONLY)
   CONDUCTIVITY IN UNITS OF MILLIWATTS/(CM)(K)

 VISC,MILLIPOISE  0.14294  0.14377  0.14460  0.14542  0.14625  0.14707  0.14789  0.14871

  WITH EQUILIBRIUM REACTIONS

 Cp, KJ/(KG)(K)   14.5413  14.5436  14.5460  14.5484  14.5509  14.5535  14.5562  14.5590
 CONDUCTIVITY      3.0163   3.0342   3.0520   3.0698   3.0876   3.1054   3.1232   3.1410
 PRANDTL NUMBER    0.6891   0.6891   0.6892   0.6892   0.6892   0.6892   0.6893   0.6893

  WITH FROZEN REACTIONS

 Cp, KJ/(KG)(K)   14.5413  14.5436  14.5460  14.5484  14.5509  14.5535  14.5562  14.5590
 CONDUCTIVITY      3.0163   3.0342   3.0520   3.0698   3.0876   3.1054   3.1232   3.1410
 PRANDTL NUMBER    0.6891   0.6891   0.6892   0.6892   0.6892   0.6892   0.6893   0.6893

 MOLE FRACTIONS

 *H2              1.00000  1.00000  1.00000  1.00000  1.00000  1.00000  1.00000  1.00000

  * THERMODYNAMIC PROPERTIES FITTED TO 20000.K

 NOTE. WEIGHT FRACTION OF FUEL IN TOTAL FUELS AND OF OXIDANT IN TOTAL OXIDANTS









               THERMODYNAMIC EQUILIBRIUM PROPERTIES AT ASSIGNED

                           TEMPERATURE AND PRESSURE

 CASE =                

             REACTANT                    WT FRACTION      ENERGY      TEMP
                                          (SEE NOTE)     KJ/KG-MOL      K  
             H2                           1.0000000         0.000      0.000

 O/F=    0.00000  %FUEL=100.000000  R,EQ.RATIO= 0.000000  PHI,EQ.RATIO= 0.000000

 THERMODYNAMIC PROPERTIES

 P, BAR           0.00740  0.00740  0.00740  0.00825  0.00825  0.00825  0.00825  0.00825
 T, K              635.00   640.00   645.00   575.00   580.00   585.00   590.00   595.00
 RHO, KG/CU M    2.8254-4 2.8034-4 2.7816-4 3.4787-4 3.4487-4 3.4192-4 3.3902-4 3.3618-4
 H, KJ/KG         4879.98  4952.80  5025.63  4007.19  4079.86  4152.54  4225.23  4297.93
 U, KJ/KG         2260.93  2313.12  2365.33  1635.61  1687.66  1739.71  1791.78  1843.86
 G, KJ/KG        -56083.3 -56563.7 -57044.5 -50107.8 -50578.7 -51050.2 -51522.3 -51995.0
 S, KJ/(KG)(K)    96.0052  96.1194  96.2328  94.1131  94.2388  94.3636  94.4873  94.6100

 M, (1/n)           2.016    2.016    2.016    2.016    2.016    2.016    2.016    2.016
 (dLV/dLP)t      -1.00000 -1.00000 -1.00000 -1.00000 -1.00000 -1.00000 -1.00000 -1.00000
 (dLV/dLT)p        1.0000   1.0000   1.0000   1.0000   1.0000   1.0000   1.0000   1.0000
 Cp, KJ/(KG)(K)   14.5618  14.5648  14.5678  14.5330  14.5350  14.5370  14.5391  14.5413
 GAMMAs            1.3952   1.3951   1.3949   1.3963   1.3962   1.3961   1.3960   1.3960
 SON VEL,M/SEC     1911.6   1919.0   1926.4   1819.7   1827.6   1835.4   1843.1   1850.9

 TRANSPORT PROPERTIES (GASES ONLY)
   CONDUCTIVITY IN UNITS OF MILLIWATTS/(CM)(K)

 VISC,MILLIPOISE  0.14952  0.15034  0.15115  0.13960  0.14044  0.14128  0.14211  0.14294

  WITH EQUILIBRIUM REACTIONS

 Cp, KJ/(KG)(K)   14.5618  14.5648  14.5678  14.5330  14.5350  14.5370  14.5391  14.5413
 CONDUCTIVITY      3.1587   3.1764   3.1942   2.9442   2.9625   2.9805   2.9984   3.0163
 PRANDTL NUMBER    0.6893   0.6893   0.6894   0.6891   0.6891   0.6891   0.6891   0.6891

  WITH FROZEN REACTIONS

 Cp, KJ/(KG)(K)   14.5618  14.5648  14.5678  14.5330  14.5350  14.5370  14.5391  14.5413
 CONDUCTIVITY      3.1587   3.1764   3.1942   2.9442   2.9625   2.9805   2.9984   3.0163
 PRANDTL NUMBER    0.6893   0.6893   0.6894   0.6891   0.6891   0.6891   0.6891   0.6891

 MOLE FRACTIONS

 *H2              1.00000  1.00000  1.00000  1.00000  1.00000  1.00000  1.00000  1.00000

  * THERMODYNAMIC PROPERTIES FITTED TO 20000.K

 NOTE. WEIGHT FRACTION OF FUEL IN TOTAL FUELS AND OF OXIDANT IN TOTAL OXIDANTS









               THERMODYNAMIC EQUILIBRIUM PROPERTIES AT ASSIGNED

                           TEMPERATURE AND PRESSURE

 CASE =                

             REACTANT                    WT FRACTION      ENERGY      TEMP
                                          (SEE NOTE)     KJ/KG-MOL      K  
             H2                           1.0000000         0.000      0.000

 O/F=    0.00000  %FUEL=100.000000  R,EQ.RATIO= 0.000000  PHI,EQ.RATIO= 0.000000

 THERMODYNAMIC PROPERTIES

 P, BAR           0.00825  0.00825  0.00825  0.00825  0.00825  0.00825  0.00825  0.00825
 T, K              600.00   605.00   610.00   615.00   620.00   625.00   630.00   635.00
 RHO, KG/CU M    3.3337-4 3.3062-4 3.2791-4 3.2524-4 3.2262-4 3.2004-4 3.1750-4 3.1500-4
 H, KJ/KG         4370.65  4443.37  4516.11  4588.85  4661.62  4734.39  4807.18  4879.98
 U, KJ/KG         1895.95  1948.05  2000.17  2052.29  2104.43  2156.58  2208.75  2260.93
 G, KJ/KG        -52468.4 -52942.3 -53416.9 -53892.1 -54367.8 -54844.1 -55321.1 -55798.6
 S, KJ/(KG)(K)    94.7317  94.8524  94.9721  95.0909  95.2087  95.3257  95.4417  95.5568

 M, (1/n)           2.016    2.016    2.016    2.016    2.016    2.016    2.016    2.016
 (dLV/dLP)t      -1.00000 -1.00000 -1.00000 -1.00000 -1.00000 -1.00000 -1.00000 -1.00000
 (dLV/dLT)p        1.0000   1.0000   1.0000   1.0000   1.0000   1.0000   1.0000   1.0000
 Cp, KJ/(KG)(K)   14.5436  14.5460  14.5484  14.5509  14.5535  14.5562  14.5590  14.5618
 GAMMAs            1.3959   1.3958   1.3957   1.3956   1.3955   1.3954   1.3953   1.3952
 SON VEL,M/SEC     1858.6   1866.3   1873.9   1881.5   1889.1   1896.6   1904.1   1911.6

 TRANSPORT PROPERTIES (GASES ONLY)
   CONDUCTIVITY IN UNITS OF MILLIWATTS/(CM)(K)

 VISC,MILLIPOISE  0.14377  0.14460  0.14542  0.14625  0.14707  0.14789  0.14871  0.14952

  WITH EQUILIBRIUM REACTIONS

 Cp, KJ/(KG)(K)   14.5436  14.5460  14.5484  14.5509  14.5535  14.5562  14.5590  14.5618
 CONDUCTIVITY      3.0342   3.0520   3.0698   3.0876   3.1054   3.1232   3.1410   3.1587
 PRANDTL NUMBER    0.6891   0.6892   0.6892   0.6892   0.6892   0.6893   0.6893   0.6893

  WITH FROZEN REACTIONS

 Cp, KJ/(KG)(K)   14.5436  14.5460  14.5484  14.5509  14.5535  14.5562  14.5590  14.5618
 CONDUCTIVITY      3.0342   3.0520   3.0698   3.0876   3.1054   3.1232   3.1410   3.1587
 PRANDTL NUMBER    0.6891   0.6892   0.6892   0.6892   0.6892   0.6893   0.6893   0.6893

 MOLE FRACTIONS

 *H2              1.00000  1.00000  1.00000  1.00000  1.00000  1.00000  1.00000  1.00000

  * THERMODYNAMIC PROPERTIES FITTED TO 20000.K

 NOTE. WEIGHT FRACTION OF FUEL IN TOTAL FUELS AND OF OXIDANT IN TOTAL OXIDANTS









               THERMODYNAMIC EQUILIBRIUM PROPERTIES AT ASSIGNED

                           TEMPERATURE AND PRESSURE

 CASE =                

             REACTANT                    WT FRACTION      ENERGY      TEMP
                                          (SEE NOTE)     KJ/KG-MOL      K  
             H2                           1.0000000         0.000      0.000

 O/F=    0.00000  %FUEL=100.000000  R,EQ.RATIO= 0.000000  PHI,EQ.RATIO= 0.000000

 THERMODYNAMIC PROPERTIES

 P, BAR           0.00825  0.00825  0.00910  0.00910  0.00910  0.00910  0.00910  0.00910
 T, K              640.00   645.00   575.00   580.00   585.00   590.00   595.00   600.00
 RHO, KG/CU M    3.1254-4 3.1012-4 3.8371-4 3.8040-4 3.7715-4 3.7395-4 3.7081-4 3.6772-4
 H, KJ/KG         4952.80  5025.63  4007.19  4079.86  4152.54  4225.23  4297.93  4370.65
 U, KJ/KG         2313.12  2365.33  1635.61  1687.66  1739.71  1791.78  1843.86  1895.95
 G, KJ/KG        -56276.6 -56755.3 -49875.3 -50344.1 -50813.6 -51283.7 -51754.4 -52225.7
 S, KJ/(KG)(K)    95.6710  95.7843  93.7086  93.8344  93.9591  94.0829  94.2056  94.3273

 M, (1/n)           2.016    2.016    2.016    2.016    2.016    2.016    2.016    2.016
 (dLV/dLP)t      -1.00000 -1.00000 -1.00000 -1.00000 -1.00000 -1.00000 -1.00000 -1.00000
 (dLV/dLT)p        1.0000   1.0000   1.0000   1.0000   1.0000   1.0000   1.0000   1.0000
 Cp, KJ/(KG)(K)   14.5648  14.5678  14.5330  14.5350  14.5370  14.5391  14.5413  14.5436
 GAMMAs            1.3951   1.3949   1.3963   1.3962   1.3961   1.3960   1.3960   1.3959
 SON VEL,M/SEC     1919.0   1926.4   1819.7   1827.6   1835.4   1843.1   1850.9   1858.6

 TRANSPORT PROPERTIES (GASES ONLY)
   CONDUCTIVITY IN UNITS OF MILLIWATTS/(CM)(K)

 VISC,MILLIPOISE  0.15034  0.15115  0.13960  0.14044  0.14128  0.14211  0.14294  0.14377

  WITH EQUILIBRIUM REACTIONS

 Cp, KJ/(KG)(K)   14.5648  14.5678  14.5330  14.5350  14.5370  14.5391  14.5413  14.5436
 CONDUCTIVITY      3.1764   3.1942   2.9442   2.9625   2.9805   2.9984   3.0163   3.0342
 PRANDTL NUMBER    0.6893   0.6894   0.6891   0.6891   0.6891   0.6891   0.6891   0.6891

  WITH FROZEN REACTIONS

 Cp, KJ/(KG)(K)   14.5648  14.5678  14.5330  14.5350  14.5370  14.5391  14.5413  14.5436
 CONDUCTIVITY      3.1764   3.1942   2.9442   2.9625   2.9805   2.9984   3.0163   3.0342
 PRANDTL NUMBER    0.6893   0.6894   0.6891   0.6891   0.6891   0.6891   0.6891   0.6891

 MOLE FRACTIONS

 *H2              1.00000  1.00000  1.00000  1.00000  1.00000  1.00000  1.00000  1.00000

  * THERMODYNAMIC PROPERTIES FITTED TO 20000.K

 NOTE. WEIGHT FRACTION OF FUEL IN TOTAL FUELS AND OF OXIDANT IN TOTAL OXIDANTS









               THERMODYNAMIC EQUILIBRIUM PROPERTIES AT ASSIGNED

                           TEMPERATURE AND PRESSURE

 CASE =                

             REACTANT                    WT FRACTION      ENERGY      TEMP
                                          (SEE NOTE)     KJ/KG-MOL      K  
             H2                           1.0000000         0.000      0.000

 O/F=    0.00000  %FUEL=100.000000  R,EQ.RATIO= 0.000000  PHI,EQ.RATIO= 0.000000

 THERMODYNAMIC PROPERTIES

 P, BAR           0.00910  0.00910  0.00910  0.00910  0.00910  0.00910  0.00910  0.00910
 T, K              605.00   610.00   615.00   620.00   625.00   630.00   635.00   640.00
 RHO, KG/CU M    3.6468-4 3.6169-4 3.5875-4 3.5586-4 3.5301-4 3.5021-4 3.4745-4 3.4474-4
 H, KJ/KG         4443.37  4516.11  4588.85  4661.62  4734.39  4807.18  4879.98  4952.80
 U, KJ/KG         1948.05  2000.17  2052.29  2104.43  2156.58  2208.75  2260.93  2313.12
 G, KJ/KG        -52697.6 -53170.2 -53643.3 -54117.0 -54591.4 -55066.3 -55541.7 -56017.8
 S, KJ/(KG)(K)    94.4480  94.5677  94.6865  94.8043  94.9212  95.0372  95.1523  95.2665

 M, (1/n)           2.016    2.016    2.016    2.016    2.016    2.016    2.016    2.016
 (dLV/dLP)t      -1.00000 -1.00000 -1.00000 -1.00000 -1.00000 -1.00000 -1.00000 -1.00000
 (dLV/dLT)p        1.0000   1.0000   1.0000   1.0000   1.0000   1.0000   1.0000   1.0000
 Cp, KJ/(KG)(K)   14.5460  14.5484  14.5509  14.5535  14.5562  14.5590  14.5618  14.5648
 GAMMAs            1.3958   1.3957   1.3956   1.3955   1.3954   1.3953   1.3952   1.3951
 SON VEL,M/SEC     1866.3   1873.9   1881.5   1889.1   1896.6   1904.1   1911.6   1919.0

 TRANSPORT PROPERTIES (GASES ONLY)
   CONDUCTIVITY IN UNITS OF MILLIWATTS/(CM)(K)

 VISC,MILLIPOISE  0.14460  0.14542  0.14625  0.14707  0.14789  0.14871  0.14952  0.15034

  WITH EQUILIBRIUM REACTIONS

 Cp, KJ/(KG)(K)   14.5460  14.5484  14.5509  14.5535  14.5562  14.5590  14.5618  14.5648
 CONDUCTIVITY      3.0520   3.0698   3.0876   3.1054   3.1232   3.1410   3.1587   3.1764
 PRANDTL NUMBER    0.6892   0.6892   0.6892   0.6892   0.6893   0.6893   0.6893   0.6893

  WITH FROZEN REACTIONS

 Cp, KJ/(KG)(K)   14.5460  14.5484  14.5509  14.5535  14.5562  14.5590  14.5618  14.5648
 CONDUCTIVITY      3.0520   3.0698   3.0876   3.1054   3.1232   3.1410   3.1587   3.1764
 PRANDTL NUMBER    0.6892   0.6892   0.6892   0.6892   0.6893   0.6893   0.6893   0.6893

 MOLE FRACTIONS

 *H2              1.00000  1.00000  1.00000  1.00000  1.00000  1.00000  1.00000  1.00000

  * THERMODYNAMIC PROPERTIES FITTED TO 20000.K

 NOTE. WEIGHT FRACTION OF FUEL IN TOTAL FUELS AND OF OXIDANT IN TOTAL OXIDANTS









               THERMODYNAMIC EQUILIBRIUM PROPERTIES AT ASSIGNED

                           TEMPERATURE AND PRESSURE

 CASE =                

             REACTANT                    WT FRACTION      ENERGY      TEMP
                                          (SEE NOTE)     KJ/KG-MOL      K  
             H2                           1.0000000         0.000      0.000

 O/F=    0.00000  %FUEL=100.000000  R,EQ.RATIO= 0.000000  PHI,EQ.RATIO= 0.000000

 THERMODYNAMIC PROPERTIES

 P, BAR           0.00910  0.01000  0.01000  0.01000  0.01000  0.01000  0.01000  0.01000
 T, K              645.00   575.00   580.00   585.00   590.00   595.00   600.00   605.00
 RHO, KG/CU M    3.4207-4 4.2166-4 4.1802-4 4.1445-4 4.1094-4 4.0749-4 4.0409-4 4.0075-4
 H, KJ/KG         5025.63  4007.19  4079.86  4152.54  4225.23  4297.93  4370.65  4443.37
 U, KJ/KG         2365.33  1635.61  1687.66  1739.71  1791.78  1843.86  1895.95  1948.05
 G, KJ/KG        -56494.4 -49651.6 -50118.5 -50586.0 -51054.2 -51522.9 -51992.3 -52462.3
 S, KJ/(KG)(K)    95.3799  93.3196  93.4454  93.5702  93.6939  93.8166  93.9383  94.0590

 M, (1/n)           2.016    2.016    2.016    2.016    2.016    2.016    2.016    2.016
 (dLV/dLP)t      -1.00000 -1.00000 -1.00000 -1.00000 -1.00000 -1.00000 -1.00000 -1.00000
 (dLV/dLT)p        1.0000   1.0000   1.0000   1.0000   1.0000   1.0000   1.0000   1.0000
 Cp, KJ/(KG)(K)   14.5678  14.5330  14.5350  14.5370  14.5391  14.5413  14.5436  14.5460
 GAMMAs            1.3949   1.3963   1.3962   1.3961   1.3960   1.3960   1.3959   1.3958
 SON VEL,M/SEC     1926.4   1819.7   1827.6   1835.4   1843.1   1850.9   1858.6   1866.3

 TRANSPORT PROPERTIES (GASES ONLY)
   CONDUCTIVITY IN UNITS OF MILLIWATTS/(CM)(K)

 VISC,MILLIPOISE  0.15115  0.13960  0.14044  0.14128  0.14211  0.14294  0.14377  0.14460

  WITH EQUILIBRIUM REACTIONS

 Cp, KJ/(KG)(K)   14.5678  14.5330  14.5350  14.5370  14.5391  14.5413  14.5436  14.5460
 CONDUCTIVITY      3.1942   2.9442   2.9625   2.9805   2.9984   3.0163   3.0342   3.0520
 PRANDTL NUMBER    0.6894   0.6891   0.6891   0.6891   0.6891   0.6891   0.6891   0.6892

  WITH FROZEN REACTIONS

 Cp, KJ/(KG)(K)   14.5678  14.5330  14.5350  14.5370  14.5391  14.5413  14.5436  14.5460
 CONDUCTIVITY      3.1942   2.9442   2.9625   2.9805   2.9984   3.0163   3.0342   3.0520
 PRANDTL NUMBER    0.6894   0.6891   0.6891   0.6891   0.6891   0.6891   0.6891   0.6892

 MOLE FRACTIONS

 *H2              1.00000  1.00000  1.00000  1.00000  1.00000  1.00000  1.00000  1.00000

  * THERMODYNAMIC PROPERTIES FITTED TO 20000.K

 NOTE. WEIGHT FRACTION OF FUEL IN TOTAL FUELS AND OF OXIDANT IN TOTAL OXIDANTS









               THERMODYNAMIC EQUILIBRIUM PROPERTIES AT ASSIGNED

                           TEMPERATURE AND PRESSURE

 CASE =                

             REACTANT                    WT FRACTION      ENERGY      TEMP
                                          (SEE NOTE)     KJ/KG-MOL      K  
             H2                           1.0000000         0.000      0.000

 O/F=    0.00000  %FUEL=100.000000  R,EQ.RATIO= 0.000000  PHI,EQ.RATIO= 0.000000

 THERMODYNAMIC PROPERTIES

 P, BAR           0.01000  0.01000  0.01000  0.01000  0.01000  0.01000  0.01000  0.01000
 T, K              610.00   615.00   620.00   625.00   630.00   635.00   640.00   645.00
 RHO, KG/CU M    3.9747-4 3.9423-4 3.9106-4 3.8793-4 3.8485-4 3.8182-4 3.7883-4 3.7590-4
 H, KJ/KG         4516.11  4588.85  4661.62  4734.39  4807.18  4879.98  4952.80  5025.63
 U, KJ/KG         2000.17  2052.29  2104.43  2156.58  2208.75  2260.93  2313.12  2365.33
 G, KJ/KG        -52932.9 -53404.1 -53875.9 -54348.2 -54821.2 -55294.7 -55768.8 -56243.5
 S, KJ/(KG)(K)    94.1787  94.2975  94.4153  94.5322  94.6482  94.7633  94.8775  94.9909

 M, (1/n)           2.016    2.016    2.016    2.016    2.016    2.016    2.016    2.016
 (dLV/dLP)t      -1.00000 -1.00000 -1.00000 -1.00000 -1.00000 -1.00000 -1.00000 -1.00000
 (dLV/dLT)p        1.0000   1.0000   1.0000   1.0000   1.0000   1.0000   1.0000   1.0000
 Cp, KJ/(KG)(K)   14.5484  14.5509  14.5535  14.5562  14.5590  14.5618  14.5648  14.5678
 GAMMAs            1.3957   1.3956   1.3955   1.3954   1.3953   1.3952   1.3951   1.3949
 SON VEL,M/SEC     1873.9   1881.5   1889.1   1896.6   1904.1   1911.6   1919.0   1926.4

 TRANSPORT PROPERTIES (GASES ONLY)
   CONDUCTIVITY IN UNITS OF MILLIWATTS/(CM)(K)

 VISC,MILLIPOISE  0.14542  0.14625  0.14707  0.14789  0.14871  0.14952  0.15034  0.15115

  WITH EQUILIBRIUM REACTIONS

 Cp, KJ/(KG)(K)   14.5484  14.5509  14.5535  14.5562  14.5590  14.5618  14.5648  14.5678
 CONDUCTIVITY      3.0698   3.0876   3.1054   3.1232   3.1410   3.1587   3.1764   3.1942
 PRANDTL NUMBER    0.6892   0.6892   0.6892   0.6893   0.6893   0.6893   0.6893   0.6894

  WITH FROZEN REACTIONS

 Cp, KJ/(KG)(K)   14.5484  14.5509  14.5535  14.5562  14.5590  14.5618  14.5648  14.5678
 CONDUCTIVITY      3.0698   3.0876   3.1054   3.1232   3.1410   3.1587   3.1764   3.1942
 PRANDTL NUMBER    0.6892   0.6892   0.6892   0.6893   0.6893   0.6893   0.6893   0.6894

 MOLE FRACTIONS

 *H2              1.00000  1.00000  1.00000  1.00000  1.00000  1.00000  1.00000  1.00000

  * THERMODYNAMIC PROPERTIES FITTED TO 20000.K

 NOTE. WEIGHT FRACTION OF FUEL IN TOTAL FUELS AND OF OXIDANT IN TOTAL OXIDANTS









               THERMODYNAMIC EQUILIBRIUM PROPERTIES AT ASSIGNED

                           TEMPERATURE AND PRESSURE

 CASE =                

             REACTANT                    WT FRACTION      ENERGY      TEMP
                                          (SEE NOTE)     KJ/KG-MOL      K  
             H2                           1.0000000         0.000      0.000

 O/F=    0.00000  %FUEL=100.000000  R,EQ.RATIO= 0.000000  PHI,EQ.RATIO= 0.000000

 THERMODYNAMIC PROPERTIES

 P, BAR           0.01100  0.01100  0.01100  0.01100  0.01100  0.01100  0.01100  0.01100
 T, K              575.00   580.00   585.00   590.00   595.00   600.00   605.00   610.00
 RHO, KG/CU M    4.6382-4 4.5983-4 4.5590-4 4.5203-4 4.4823-4 4.4450-4 4.4083-4 4.3721-4
 H, KJ/KG         4007.19  4079.86  4152.54  4225.23  4297.93  4370.65  4443.37  4516.11
 U, KJ/KG         1635.61  1687.66  1739.71  1791.78  1843.86  1895.95  1948.05  2000.17
 G, KJ/KG        -49425.5 -49890.5 -50356.0 -50822.2 -51289.0 -51756.5 -52224.5 -52693.1
 S, KJ/(KG)(K)    92.9265  93.0523  93.1770  93.3008  93.4235  93.5452  93.6659  93.7856

 M, (1/n)           2.016    2.016    2.016    2.016    2.016    2.016    2.016    2.016
 (dLV/dLP)t      -1.00000 -1.00000 -1.00000 -1.00000 -1.00000 -1.00000 -1.00000 -1.00000
 (dLV/dLT)p        1.0000   1.0000   1.0000   1.0000   1.0000   1.0000   1.0000   1.0000
 Cp, KJ/(KG)(K)   14.5330  14.5350  14.5370  14.5391  14.5413  14.5436  14.5460  14.5484
 GAMMAs            1.3963   1.3962   1.3961   1.3960   1.3960   1.3959   1.3958   1.3957
 SON VEL,M/SEC     1819.7   1827.6   1835.4   1843.1   1850.9   1858.6   1866.3   1873.9

 TRANSPORT PROPERTIES (GASES ONLY)
   CONDUCTIVITY IN UNITS OF MILLIWATTS/(CM)(K)

 VISC,MILLIPOISE  0.13960  0.14044  0.14128  0.14211  0.14294  0.14377  0.14460  0.14542

  WITH EQUILIBRIUM REACTIONS

 Cp, KJ/(KG)(K)   14.5330  14.5350  14.5370  14.5391  14.5413  14.5436  14.5460  14.5484
 CONDUCTIVITY      2.9442   2.9625   2.9805   2.9984   3.0163   3.0342   3.0520   3.0698
 PRANDTL NUMBER    0.6891   0.6891   0.6891   0.6891   0.6891   0.6891   0.6892   0.6892

  WITH FROZEN REACTIONS

 Cp, KJ/(KG)(K)   14.5330  14.5350  14.5370  14.5391  14.5413  14.5436  14.5460  14.5484
 CONDUCTIVITY      2.9442   2.9625   2.9805   2.9984   3.0163   3.0342   3.0520   3.0698
 PRANDTL NUMBER    0.6891   0.6891   0.6891   0.6891   0.6891   0.6891   0.6892   0.6892

 MOLE FRACTIONS

 *H2              1.00000  1.00000  1.00000  1.00000  1.00000  1.00000  1.00000  1.00000

  * THERMODYNAMIC PROPERTIES FITTED TO 20000.K

 NOTE. WEIGHT FRACTION OF FUEL IN TOTAL FUELS AND OF OXIDANT IN TOTAL OXIDANTS









               THERMODYNAMIC EQUILIBRIUM PROPERTIES AT ASSIGNED

                           TEMPERATURE AND PRESSURE

 CASE =                

             REACTANT                    WT FRACTION      ENERGY      TEMP
                                          (SEE NOTE)     KJ/KG-MOL      K  
             H2                           1.0000000         0.000      0.000

 O/F=    0.00000  %FUEL=100.000000  R,EQ.RATIO= 0.000000  PHI,EQ.RATIO= 0.000000

 THERMODYNAMIC PROPERTIES

 P, BAR           0.01100  0.01100  0.01100  0.01100  0.01100  0.01100  0.01100  0.01200
 T, K              615.00   620.00   625.00   630.00   635.00   640.00   645.00   575.00
 RHO, KG/CU M    4.3366-4 4.3016-4 4.2672-4 4.2333-4 4.2000-4 4.1672-4 4.1349-4 5.0599-4
 H, KJ/KG         4588.85  4661.62  4734.39  4807.18  4879.98  4952.80  5025.63  4007.19
 U, KJ/KG         2052.29  2104.43  2156.58  2208.75  2260.93  2313.12  2365.33  1635.61
 G, KJ/KG        -53162.3 -53632.2 -54102.6 -54573.5 -55045.1 -55517.2 -55989.9 -49219.2
 S, KJ/(KG)(K)    93.9044  94.0222  94.1391  94.2551  94.3702  94.4844  94.5978  92.5676

 M, (1/n)           2.016    2.016    2.016    2.016    2.016    2.016    2.016    2.016
 (dLV/dLP)t      -1.00000 -1.00000 -1.00000 -1.00000 -1.00000 -1.00000 -1.00000 -1.00000
 (dLV/dLT)p        1.0000   1.0000   1.0000   1.0000   1.0000   1.0000   1.0000   1.0000
 Cp, KJ/(KG)(K)   14.5509  14.5535  14.5562  14.5590  14.5618  14.5648  14.5678  14.5330
 GAMMAs            1.3956   1.3955   1.3954   1.3953   1.3952   1.3951   1.3949   1.3963
 SON VEL,M/SEC     1881.5   1889.1   1896.6   1904.1   1911.6   1919.0   1926.4   1819.7

 TRANSPORT PROPERTIES (GASES ONLY)
   CONDUCTIVITY IN UNITS OF MILLIWATTS/(CM)(K)

 VISC,MILLIPOISE  0.14625  0.14707  0.14789  0.14871  0.14952  0.15034  0.15115  0.13960

  WITH EQUILIBRIUM REACTIONS

 Cp, KJ/(KG)(K)   14.5509  14.5535  14.5562  14.5590  14.5618  14.5648  14.5678  14.5330
 CONDUCTIVITY      3.0876   3.1054   3.1232   3.1410   3.1587   3.1764   3.1942   2.9442
 PRANDTL NUMBER    0.6892   0.6892   0.6893   0.6893   0.6893   0.6893   0.6894   0.6891

  WITH FROZEN REACTIONS

 Cp, KJ/(KG)(K)   14.5509  14.5535  14.5562  14.5590  14.5618  14.5648  14.5678  14.5330
 CONDUCTIVITY      3.0876   3.1054   3.1232   3.1410   3.1587   3.1764   3.1942   2.9442
 PRANDTL NUMBER    0.6892   0.6892   0.6893   0.6893   0.6893   0.6893   0.6894   0.6891

 MOLE FRACTIONS

 *H2              1.00000  1.00000  1.00000  1.00000  1.00000  1.00000  1.00000  1.00000

  * THERMODYNAMIC PROPERTIES FITTED TO 20000.K

 NOTE. WEIGHT FRACTION OF FUEL IN TOTAL FUELS AND OF OXIDANT IN TOTAL OXIDANTS









               THERMODYNAMIC EQUILIBRIUM PROPERTIES AT ASSIGNED

                           TEMPERATURE AND PRESSURE

 CASE =                

             REACTANT                    WT FRACTION      ENERGY      TEMP
                                          (SEE NOTE)     KJ/KG-MOL      K  
             H2                           1.0000000         0.000      0.000

 O/F=    0.00000  %FUEL=100.000000  R,EQ.RATIO= 0.000000  PHI,EQ.RATIO= 0.000000

 THERMODYNAMIC PROPERTIES

 P, BAR           0.01200  0.01200  0.01200  0.01200  0.01200  0.01200  0.01200  0.01200
 T, K              580.00   585.00   590.00   595.00   600.00   605.00   610.00   615.00
 RHO, KG/CU M    5.0163-4 4.9734-4 4.9313-4 4.8898-4 4.8491-4 4.8090-4 4.7696-4 4.7308-4
 H, KJ/KG         4079.86  4152.54  4225.23  4297.93  4370.65  4443.37  4516.11  4588.85
 U, KJ/KG         1687.66  1739.71  1791.78  1843.86  1895.95  1948.05  2000.17  2052.29
 G, KJ/KG        -49682.3 -50146.1 -50610.5 -51075.5 -51541.1 -52007.4 -52474.2 -52941.6
 S, KJ/(KG)(K)    92.6934  92.8182  92.9419  93.0646  93.1863  93.3070  93.4267  93.5455

 M, (1/n)           2.016    2.016    2.016    2.016    2.016    2.016    2.016    2.016
 (dLV/dLP)t      -1.00000 -1.00000 -1.00000 -1.00000 -1.00000 -1.00000 -1.00000 -1.00000
 (dLV/dLT)p        1.0000   1.0000   1.0000   1.0000   1.0000   1.0000   1.0000   1.0000
 Cp, KJ/(KG)(K)   14.5350  14.5370  14.5391  14.5413  14.5436  14.5460  14.5484  14.5509
 GAMMAs            1.3962   1.3961   1.3960   1.3960   1.3959   1.3958   1.3957   1.3956
 SON VEL,M/SEC     1827.6   1835.4   1843.1   1850.9   1858.6   1866.3   1873.9   1881.5

 TRANSPORT PROPERTIES (GASES ONLY)
   CONDUCTIVITY IN UNITS OF MILLIWATTS/(CM)(K)

 VISC,MILLIPOISE  0.14044  0.14128  0.14211  0.14294  0.14377  0.14460  0.14542  0.14625

  WITH EQUILIBRIUM REACTIONS

 Cp, KJ/(KG)(K)   14.5350  14.5370  14.5391  14.5413  14.5436  14.5460  14.5484  14.5509
 CONDUCTIVITY      2.9625   2.9805   2.9984   3.0163   3.0342   3.0520   3.0698   3.0876
 PRANDTL NUMBER    0.6891   0.6891   0.6891   0.6891   0.6891   0.6892   0.6892   0.6892

  WITH FROZEN REACTIONS

 Cp, KJ/(KG)(K)   14.5350  14.5370  14.5391  14.5413  14.5436  14.5460  14.5484  14.5509
 CONDUCTIVITY      2.9625   2.9805   2.9984   3.0163   3.0342   3.0520   3.0698   3.0876
 PRANDTL NUMBER    0.6891   0.6891   0.6891   0.6891   0.6891   0.6892   0.6892   0.6892

 MOLE FRACTIONS

 *H2              1.00000  1.00000  1.00000  1.00000  1.00000  1.00000  1.00000  1.00000

  * THERMODYNAMIC PROPERTIES FITTED TO 20000.K

 NOTE. WEIGHT FRACTION OF FUEL IN TOTAL FUELS AND OF OXIDANT IN TOTAL OXIDANTS









               THERMODYNAMIC EQUILIBRIUM PROPERTIES AT ASSIGNED

                           TEMPERATURE AND PRESSURE

 CASE =                

             REACTANT                    WT FRACTION      ENERGY      TEMP
                                          (SEE NOTE)     KJ/KG-MOL      K  
             H2                           1.0000000         0.000      0.000

 O/F=    0.00000  %FUEL=100.000000  R,EQ.RATIO= 0.000000  PHI,EQ.RATIO= 0.000000

 THERMODYNAMIC PROPERTIES

 P, BAR           0.01200  0.01200  0.01200  0.01200  0.01200  0.01200  0.01320  0.01320
 T, K              620.00   625.00   630.00   635.00   640.00   645.00   575.00   580.00
 RHO, KG/CU M    4.6927-4 4.6551-4 4.6182-4 4.5818-4 4.5460-4 4.5108-4 5.5659-4 5.5179-4
 H, KJ/KG         4661.62  4734.39  4807.18  4879.98  4952.80  5025.63  4007.19  4079.86
 U, KJ/KG         2104.43  2156.58  2208.75  2260.93  2313.12  2365.33  1635.61  1687.66
 G, KJ/KG        -53409.6 -53878.3 -54347.4 -54817.2 -55287.6 -55758.5 -48993.2 -49454.3
 S, KJ/(KG)(K)    93.6633  93.7802  93.8962  94.0113  94.1256  94.2389  92.1745  92.3003

 M, (1/n)           2.016    2.016    2.016    2.016    2.016    2.016    2.016    2.016
 (dLV/dLP)t      -1.00000 -1.00000 -1.00000 -1.00000 -1.00000 -1.00000 -1.00000 -1.00000
 (dLV/dLT)p        1.0000   1.0000   1.0000   1.0000   1.0000   1.0000   1.0000   1.0000
 Cp, KJ/(KG)(K)   14.5535  14.5562  14.5590  14.5618  14.5648  14.5678  14.5330  14.5350
 GAMMAs            1.3955   1.3954   1.3953   1.3952   1.3951   1.3949   1.3963   1.3962
 SON VEL,M/SEC     1889.1   1896.6   1904.1   1911.6   1919.0   1926.4   1819.7   1827.6

 TRANSPORT PROPERTIES (GASES ONLY)
   CONDUCTIVITY IN UNITS OF MILLIWATTS/(CM)(K)

 VISC,MILLIPOISE  0.14707  0.14789  0.14871  0.14952  0.15034  0.15115  0.13960  0.14044

  WITH EQUILIBRIUM REACTIONS

 Cp, KJ/(KG)(K)   14.5535  14.5562  14.5590  14.5618  14.5648  14.5678  14.5330  14.5350
 CONDUCTIVITY      3.1054   3.1232   3.1410   3.1587   3.1764   3.1942   2.9442   2.9625
 PRANDTL NUMBER    0.6892   0.6893   0.6893   0.6893   0.6893   0.6894   0.6891   0.6891

  WITH FROZEN REACTIONS

 Cp, KJ/(KG)(K)   14.5535  14.5562  14.5590  14.5618  14.5648  14.5678  14.5330  14.5350
 CONDUCTIVITY      3.1054   3.1232   3.1410   3.1587   3.1764   3.1942   2.9442   2.9625
 PRANDTL NUMBER    0.6892   0.6893   0.6893   0.6893   0.6893   0.6894   0.6891   0.6891

 MOLE FRACTIONS

 *H2              1.00000  1.00000  1.00000  1.00000  1.00000  1.00000  1.00000  1.00000

  * THERMODYNAMIC PROPERTIES FITTED TO 20000.K

 NOTE. WEIGHT FRACTION OF FUEL IN TOTAL FUELS AND OF OXIDANT IN TOTAL OXIDANTS









               THERMODYNAMIC EQUILIBRIUM PROPERTIES AT ASSIGNED

                           TEMPERATURE AND PRESSURE

 CASE =                

             REACTANT                    WT FRACTION      ENERGY      TEMP
                                          (SEE NOTE)     KJ/KG-MOL      K  
             H2                           1.0000000         0.000      0.000

 O/F=    0.00000  %FUEL=100.000000  R,EQ.RATIO= 0.000000  PHI,EQ.RATIO= 0.000000

 THERMODYNAMIC PROPERTIES

 P, BAR           0.01320  0.01320  0.01320  0.01320  0.01320  0.01320  0.01320  0.01320
 T, K              585.00   590.00   595.00   600.00   605.00   610.00   615.00   620.00
 RHO, KG/CU M    5.4708-4 5.4244-4 5.3788-4 5.3340-4 5.2899-4 5.2465-4 5.2039-4 5.1619-4
 H, KJ/KG         4152.54  4225.23  4297.93  4370.65  4443.37  4516.11  4588.85  4661.62
 U, KJ/KG         1739.71  1791.78  1843.86  1895.95  1948.05  2000.17  2052.29  2104.43
 G, KJ/KG        -49916.1 -50378.5 -50841.6 -51305.3 -51769.5 -52234.4 -52699.9 -53165.9
 S, KJ/(KG)(K)    92.4251  92.5488  92.6715  92.7932  92.9139  93.0336  93.1524  93.2702

 M, (1/n)           2.016    2.016    2.016    2.016    2.016    2.016    2.016    2.016
 (dLV/dLP)t      -1.00000 -1.00000 -1.00000 -1.00000 -1.00000 -1.00000 -1.00000 -1.00000
 (dLV/dLT)p        1.0000   1.0000   1.0000   1.0000   1.0000   1.0000   1.0000   1.0000
 Cp, KJ/(KG)(K)   14.5370  14.5391  14.5413  14.5436  14.5460  14.5484  14.5509  14.5535
 GAMMAs            1.3961   1.3960   1.3960   1.3959   1.3958   1.3957   1.3956   1.3955
 SON VEL,M/SEC     1835.4   1843.1   1850.9   1858.6   1866.3   1873.9   1881.5   1889.1

 TRANSPORT PROPERTIES (GASES ONLY)
   CONDUCTIVITY IN UNITS OF MILLIWATTS/(CM)(K)

 VISC,MILLIPOISE  0.14128  0.14211  0.14294  0.14377  0.14460  0.14542  0.14625  0.14707

  WITH EQUILIBRIUM REACTIONS

 Cp, KJ/(KG)(K)   14.5370  14.5391  14.5413  14.5436  14.5460  14.5484  14.5509  14.5535
 CONDUCTIVITY      2.9805   2.9984   3.0163   3.0342   3.0520   3.0698   3.0876   3.1054
 PRANDTL NUMBER    0.6891   0.6891   0.6891   0.6891   0.6892   0.6892   0.6892   0.6892

  WITH FROZEN REACTIONS

 Cp, KJ/(KG)(K)   14.5370  14.5391  14.5413  14.5436  14.5460  14.5484  14.5509  14.5535
 CONDUCTIVITY      2.9805   2.9984   3.0163   3.0342   3.0520   3.0698   3.0876   3.1054
 PRANDTL NUMBER    0.6891   0.6891   0.6891   0.6891   0.6892   0.6892   0.6892   0.6892

 MOLE FRACTIONS

 *H2              1.00000  1.00000  1.00000  1.00000  1.00000  1.00000  1.00000  1.00000

  * THERMODYNAMIC PROPERTIES FITTED TO 20000.K

 NOTE. WEIGHT FRACTION OF FUEL IN TOTAL FUELS AND OF OXIDANT IN TOTAL OXIDANTS









               THERMODYNAMIC EQUILIBRIUM PROPERTIES AT ASSIGNED

                           TEMPERATURE AND PRESSURE

 CASE =                

             REACTANT                    WT FRACTION      ENERGY      TEMP
                                          (SEE NOTE)     KJ/KG-MOL      K  
             H2                           1.0000000         0.000      0.000

 O/F=    0.00000  %FUEL=100.000000  R,EQ.RATIO= 0.000000  PHI,EQ.RATIO= 0.000000

 THERMODYNAMIC PROPERTIES

 P, BAR           0.01320  0.01320  0.01320  0.01320  0.01320  0.01480  0.01480  0.01480
 T, K              625.00   630.00   635.00   640.00   645.00   575.00   580.00   585.00
 RHO, KG/CU M    5.1206-4 5.0800-4 5.0400-4 5.0006-4 4.9619-4 6.2405-4 6.1868-4 6.1339-4
 H, KJ/KG         4734.39  4807.18  4879.98  4952.80  5025.63  4007.19  4079.86  4152.54
 U, KJ/KG         2156.58  2208.75  2260.93  2313.12  2365.33  1635.61  1687.66  1739.71
 G, KJ/KG        -53632.6 -54099.8 -54567.6 -55036.0 -55504.9 -48721.8 -49180.6 -49640.1
 S, KJ/(KG)(K)    93.3871  93.5031  93.6182  93.7324  93.8458  91.7026  91.8284  91.9532

 M, (1/n)           2.016    2.016    2.016    2.016    2.016    2.016    2.016    2.016
 (dLV/dLP)t      -1.00000 -1.00000 -1.00000 -1.00000 -1.00000 -1.00000 -1.00000 -1.00000
 (dLV/dLT)p        1.0000   1.0000   1.0000   1.0000   1.0000   1.0000   1.0000   1.0000
 Cp, KJ/(KG)(K)   14.5562  14.5590  14.5618  14.5648  14.5678  14.5330  14.5350  14.5370
 GAMMAs            1.3954   1.3953   1.3952   1.3951   1.3949   1.3963   1.3962   1.3961
 SON VEL,M/SEC     1896.6   1904.1   1911.6   1919.0   1926.4   1819.7   1827.6   1835.4

 TRANSPORT PROPERTIES (GASES ONLY)
   CONDUCTIVITY IN UNITS OF MILLIWATTS/(CM)(K)

 VISC,MILLIPOISE  0.14789  0.14871  0.14952  0.15034  0.15115  0.13960  0.14044  0.14128

  WITH EQUILIBRIUM REACTIONS

 Cp, KJ/(KG)(K)   14.5562  14.5590  14.5618  14.5648  14.5678  14.5330  14.5350  14.5370
 CONDUCTIVITY      3.1232   3.1410   3.1587   3.1764   3.1942   2.9442   2.9625   2.9805
 PRANDTL NUMBER    0.6893   0.6893   0.6893   0.6893   0.6894   0.6891   0.6891   0.6891

  WITH FROZEN REACTIONS

 Cp, KJ/(KG)(K)   14.5562  14.5590  14.5618  14.5648  14.5678  14.5330  14.5350  14.5370
 CONDUCTIVITY      3.1232   3.1410   3.1587   3.1764   3.1942   2.9442   2.9625   2.9805
 PRANDTL NUMBER    0.6893   0.6893   0.6893   0.6893   0.6894   0.6891   0.6891   0.6891

 MOLE FRACTIONS

 *H2              1.00000  1.00000  1.00000  1.00000  1.00000  1.00000  1.00000  1.00000

  * THERMODYNAMIC PROPERTIES FITTED TO 20000.K

 NOTE. WEIGHT FRACTION OF FUEL IN TOTAL FUELS AND OF OXIDANT IN TOTAL OXIDANTS









               THERMODYNAMIC EQUILIBRIUM PROPERTIES AT ASSIGNED

                           TEMPERATURE AND PRESSURE

 CASE =                

             REACTANT                    WT FRACTION      ENERGY      TEMP
                                          (SEE NOTE)     KJ/KG-MOL      K  
             H2                           1.0000000         0.000      0.000

 O/F=    0.00000  %FUEL=100.000000  R,EQ.RATIO= 0.000000  PHI,EQ.RATIO= 0.000000

 THERMODYNAMIC PROPERTIES

 P, BAR           0.01480  0.01480  0.01480  0.01480  0.01480  0.01480  0.01480  0.01480
 T, K              590.00   595.00   600.00   605.00   610.00   615.00   620.00   625.00
 RHO, KG/CU M    6.0819-4 6.0308-4 5.9805-4 5.9311-4 5.8825-4 5.8347-4 5.7876-4 5.7413-4
 H, KJ/KG         4225.23  4297.93  4370.65  4443.37  4516.11  4588.85  4661.62  4734.39
 U, KJ/KG         1791.78  1843.86  1895.95  1948.05  2000.17  2052.29  2104.43  2156.58
 G, KJ/KG        -50100.1 -50560.8 -51022.1 -51484.0 -51946.5 -52409.7 -52873.3 -53337.6
 S, KJ/(KG)(K)    92.0769  92.1996  92.3213  92.4420  92.5617  92.6805  92.7983  92.9152

 M, (1/n)           2.016    2.016    2.016    2.016    2.016    2.016    2.016    2.016
 (dLV/dLP)t      -1.00000 -1.00000 -1.00000 -1.00000 -1.00000 -1.00000 -1.00000 -1.00000
 (dLV/dLT)p        1.0000   1.0000   1.0000   1.0000   1.0000   1.0000   1.0000   1.0000
 Cp, KJ/(KG)(K)   14.5391  14.5413  14.5436  14.5460  14.5484  14.5509  14.5535  14.5562
 GAMMAs            1.3960   1.3960   1.3959   1.3958   1.3957   1.3956   1.3955   1.3954
 SON VEL,M/SEC     1843.1   1850.9   1858.6   1866.3   1873.9   1881.5   1889.1   1896.6

 TRANSPORT PROPERTIES (GASES ONLY)
   CONDUCTIVITY IN UNITS OF MILLIWATTS/(CM)(K)

 VISC,MILLIPOISE  0.14211  0.14294  0.14377  0.14460  0.14542  0.14625  0.14707  0.14789

  WITH EQUILIBRIUM REACTIONS

 Cp, KJ/(KG)(K)   14.5391  14.5413  14.5436  14.5460  14.5484  14.5509  14.5535  14.5562
 CONDUCTIVITY      2.9984   3.0163   3.0342   3.0520   3.0698   3.0876   3.1054   3.1232
 PRANDTL NUMBER    0.6891   0.6891   0.6891   0.6892   0.6892   0.6892   0.6892   0.6893

  WITH FROZEN REACTIONS

 Cp, KJ/(KG)(K)   14.5391  14.5413  14.5436  14.5460  14.5484  14.5509  14.5535  14.5562
 CONDUCTIVITY      2.9984   3.0163   3.0342   3.0520   3.0698   3.0876   3.1054   3.1232
 PRANDTL NUMBER    0.6891   0.6891   0.6891   0.6892   0.6892   0.6892   0.6892   0.6893

 MOLE FRACTIONS

 *H2              1.00000  1.00000  1.00000  1.00000  1.00000  1.00000  1.00000  1.00000

  * THERMODYNAMIC PROPERTIES FITTED TO 20000.K

 NOTE. WEIGHT FRACTION OF FUEL IN TOTAL FUELS AND OF OXIDANT IN TOTAL OXIDANTS









               THERMODYNAMIC EQUILIBRIUM PROPERTIES AT ASSIGNED

                           TEMPERATURE AND PRESSURE

 CASE =                

             REACTANT                    WT FRACTION      ENERGY      TEMP
                                          (SEE NOTE)     KJ/KG-MOL      K  
             H2                           1.0000000         0.000      0.000

 O/F=    0.00000  %FUEL=100.000000  R,EQ.RATIO= 0.000000  PHI,EQ.RATIO= 0.000000

 THERMODYNAMIC PROPERTIES

 P, BAR           0.01480  0.01480  0.01480  0.01480  0.01650  0.01650  0.01650  0.01650
 T, K              630.00   635.00   640.00   645.00   575.00   580.00   585.00   590.00
 RHO, KG/CU M    5.6957-4 5.6509-4 5.6068-4 5.5633-4 6.9574-4 6.8974-4 6.8384-4 6.7805-4
 H, KJ/KG         4807.18  4879.98  4952.80  5025.63  4007.19  4079.86  4152.54  4225.23
 U, KJ/KG         2208.75  2260.93  2313.12  2365.33  1635.61  1687.66  1739.71  1791.78
 G, KJ/KG        -53802.5 -54267.9 -54734.0 -55200.5 -48464.0 -48920.5 -49377.7 -49835.5
 S, KJ/(KG)(K)    93.0312  93.1463  93.2606  93.3739  91.2542  91.3800  91.5047  91.6284

 M, (1/n)           2.016    2.016    2.016    2.016    2.016    2.016    2.016    2.016
 (dLV/dLP)t      -1.00000 -1.00000 -1.00000 -1.00000 -1.00000 -1.00000 -1.00000 -1.00000
 (dLV/dLT)p        1.0000   1.0000   1.0000   1.0000   1.0000   1.0000   1.0000   1.0000
 Cp, KJ/(KG)(K)   14.5590  14.5618  14.5648  14.5678  14.5330  14.5350  14.5370  14.5391
 GAMMAs            1.3953   1.3952   1.3951   1.3949   1.3963   1.3962   1.3961   1.3960
 SON VEL,M/SEC     1904.1   1911.6   1919.0   1926.4   1819.7   1827.6   1835.4   1843.1

 TRANSPORT PROPERTIES (GASES ONLY)
   CONDUCTIVITY IN UNITS OF MILLIWATTS/(CM)(K)

 VISC,MILLIPOISE  0.14871  0.14952  0.15034  0.15115  0.13960  0.14044  0.14128  0.14211

  WITH EQUILIBRIUM REACTIONS

 Cp, KJ/(KG)(K)   14.5590  14.5618  14.5648  14.5678  14.5330  14.5350  14.5370  14.5391
 CONDUCTIVITY      3.1410   3.1587   3.1764   3.1942   2.9442   2.9625   2.9805   2.9984
 PRANDTL NUMBER    0.6893   0.6893   0.6893   0.6894   0.6891   0.6891   0.6891   0.6891

  WITH FROZEN REACTIONS

 Cp, KJ/(KG)(K)   14.5590  14.5618  14.5648  14.5678  14.5330  14.5350  14.5370  14.5391
 CONDUCTIVITY      3.1410   3.1587   3.1764   3.1942   2.9442   2.9625   2.9805   2.9984
 PRANDTL NUMBER    0.6893   0.6893   0.6893   0.6894   0.6891   0.6891   0.6891   0.6891

 MOLE FRACTIONS

 *H2              1.00000  1.00000  1.00000  1.00000  1.00000  1.00000  1.00000  1.00000

  * THERMODYNAMIC PROPERTIES FITTED TO 20000.K

 NOTE. WEIGHT FRACTION OF FUEL IN TOTAL FUELS AND OF OXIDANT IN TOTAL OXIDANTS









               THERMODYNAMIC EQUILIBRIUM PROPERTIES AT ASSIGNED

                           TEMPERATURE AND PRESSURE

 CASE =                

             REACTANT                    WT FRACTION      ENERGY      TEMP
                                          (SEE NOTE)     KJ/KG-MOL      K  
             H2                           1.0000000         0.000      0.000

 O/F=    0.00000  %FUEL=100.000000  R,EQ.RATIO= 0.000000  PHI,EQ.RATIO= 0.000000

 THERMODYNAMIC PROPERTIES

 P, BAR           0.01650  0.01650  0.01650  0.01650  0.01650  0.01650  0.01650  0.01650
 T, K              595.00   600.00   605.00   610.00   615.00   620.00   625.00   630.00
 RHO, KG/CU M    6.7235-4 6.6675-4 6.6124-4 6.5582-4 6.5049-4 6.4524-4 6.4008-4 6.3500-4
 H, KJ/KG         4297.93  4370.65  4443.37  4516.11  4588.85  4661.62  4734.39  4807.18
 U, KJ/KG         1843.86  1895.95  1948.05  2000.17  2052.29  2104.43  2156.58  2208.75
 G, KJ/KG        -50294.0 -50753.0 -51212.7 -51673.0 -52133.8 -52595.3 -53057.3 -53520.0
 S, KJ/(KG)(K)    91.7511  91.8728  91.9935  92.1133  92.2320  92.3499  92.4668  92.5828

 M, (1/n)           2.016    2.016    2.016    2.016    2.016    2.016    2.016    2.016
 (dLV/dLP)t      -1.00000 -1.00000 -1.00000 -1.00000 -1.00000 -1.00000 -1.00000 -1.00000
 (dLV/dLT)p        1.0000   1.0000   1.0000   1.0000   1.0000   1.0000   1.0000   1.0000
 Cp, KJ/(KG)(K)   14.5413  14.5436  14.5460  14.5484  14.5509  14.5535  14.5562  14.5590
 GAMMAs            1.3960   1.3959   1.3958   1.3957   1.3956   1.3955   1.3954   1.3953
 SON VEL,M/SEC     1850.9   1858.6   1866.3   1873.9   1881.5   1889.1   1896.6   1904.1

 TRANSPORT PROPERTIES (GASES ONLY)
   CONDUCTIVITY IN UNITS OF MILLIWATTS/(CM)(K)

 VISC,MILLIPOISE  0.14294  0.14377  0.14460  0.14542  0.14625  0.14707  0.14789  0.14871

  WITH EQUILIBRIUM REACTIONS

 Cp, KJ/(KG)(K)   14.5413  14.5436  14.5460  14.5484  14.5509  14.5535  14.5562  14.5590
 CONDUCTIVITY      3.0163   3.0342   3.0520   3.0698   3.0876   3.1054   3.1232   3.1410
 PRANDTL NUMBER    0.6891   0.6891   0.6892   0.6892   0.6892   0.6892   0.6893   0.6893

  WITH FROZEN REACTIONS

 Cp, KJ/(KG)(K)   14.5413  14.5436  14.5460  14.5484  14.5509  14.5535  14.5562  14.5590
 CONDUCTIVITY      3.0163   3.0342   3.0520   3.0698   3.0876   3.1054   3.1232   3.1410
 PRANDTL NUMBER    0.6891   0.6891   0.6892   0.6892   0.6892   0.6892   0.6893   0.6893

 MOLE FRACTIONS

 *H2              1.00000  1.00000  1.00000  1.00000  1.00000  1.00000  1.00000  1.00000

  * THERMODYNAMIC PROPERTIES FITTED TO 20000.K

 NOTE. WEIGHT FRACTION OF FUEL IN TOTAL FUELS AND OF OXIDANT IN TOTAL OXIDANTS









               THERMODYNAMIC EQUILIBRIUM PROPERTIES AT ASSIGNED

                           TEMPERATURE AND PRESSURE

 CASE =                

             REACTANT                    WT FRACTION      ENERGY      TEMP
                                          (SEE NOTE)     KJ/KG-MOL      K  
             H2                           1.0000000         0.000      0.000

 O/F=    0.00000  %FUEL=100.000000  R,EQ.RATIO= 0.000000  PHI,EQ.RATIO= 0.000000

 THERMODYNAMIC PROPERTIES

 P, BAR           0.01650  0.01650  0.01650  0.01800  0.01800  0.01800  0.01800  0.01800
 T, K              635.00   640.00   645.00   575.00   580.00   585.00   590.00   595.00
 RHO, KG/CU M    6.3000-4 6.2508-4 6.2023-4 7.5899-4 7.5244-4 7.4601-4 7.3969-4 7.3347-4
 H, KJ/KG         4879.98  4952.80  5025.63  4007.19  4079.86  4152.54  4225.23  4297.93
 U, KJ/KG         2260.93  2313.12  2365.33  1635.61  1687.66  1739.71  1791.78  1843.86
 G, KJ/KG        -53983.2 -54446.9 -54911.3 -48257.6 -48712.4 -49167.8 -49623.8 -50080.5
 S, KJ/(KG)(K)    92.6979  92.8121  92.9254  90.8953  91.0211  91.1458  91.2695  91.3922

 M, (1/n)           2.016    2.016    2.016    2.016    2.016    2.016    2.016    2.016
 (dLV/dLP)t      -1.00000 -1.00000 -1.00000 -1.00000 -1.00000 -1.00000 -1.00000 -1.00000
 (dLV/dLT)p        1.0000   1.0000   1.0000   1.0000   1.0000   1.0000   1.0000   1.0000
 Cp, KJ/(KG)(K)   14.5618  14.5648  14.5678  14.5330  14.5350  14.5370  14.5391  14.5413
 GAMMAs            1.3952   1.3951   1.3949   1.3963   1.3962   1.3961   1.3960   1.3960
 SON VEL,M/SEC     1911.6   1919.0   1926.4   1819.7   1827.6   1835.4   1843.1   1850.9

 TRANSPORT PROPERTIES (GASES ONLY)
   CONDUCTIVITY IN UNITS OF MILLIWATTS/(CM)(K)

 VISC,MILLIPOISE  0.14952  0.15034  0.15115  0.13960  0.14044  0.14128  0.14211  0.14294

  WITH EQUILIBRIUM REACTIONS

 Cp, KJ/(KG)(K)   14.5618  14.5648  14.5678  14.5330  14.5350  14.5370  14.5391  14.5413
 CONDUCTIVITY      3.1587   3.1764   3.1942   2.9442   2.9625   2.9805   2.9984   3.0163
 PRANDTL NUMBER    0.6893   0.6893   0.6894   0.6891   0.6891   0.6891   0.6891   0.6891

  WITH FROZEN REACTIONS

 Cp, KJ/(KG)(K)   14.5618  14.5648  14.5678  14.5330  14.5350  14.5370  14.5391  14.5413
 CONDUCTIVITY      3.1587   3.1764   3.1942   2.9442   2.9625   2.9805   2.9984   3.0163
 PRANDTL NUMBER    0.6893   0.6893   0.6894   0.6891   0.6891   0.6891   0.6891   0.6891

 MOLE FRACTIONS

 *H2              1.00000  1.00000  1.00000  1.00000  1.00000  1.00000  1.00000  1.00000

  * THERMODYNAMIC PROPERTIES FITTED TO 20000.K

 NOTE. WEIGHT FRACTION OF FUEL IN TOTAL FUELS AND OF OXIDANT IN TOTAL OXIDANTS









               THERMODYNAMIC EQUILIBRIUM PROPERTIES AT ASSIGNED

                           TEMPERATURE AND PRESSURE

 CASE =                

             REACTANT                    WT FRACTION      ENERGY      TEMP
                                          (SEE NOTE)     KJ/KG-MOL      K  
             H2                           1.0000000         0.000      0.000

 O/F=    0.00000  %FUEL=100.000000  R,EQ.RATIO= 0.000000  PHI,EQ.RATIO= 0.000000

 THERMODYNAMIC PROPERTIES

 P, BAR           0.01800  0.01800  0.01800  0.01800  0.01800  0.01800  0.01800  0.01800
 T, K              600.00   605.00   610.00   615.00   620.00   625.00   630.00   635.00
 RHO, KG/CU M    7.2736-4 7.2135-4 7.1544-4 7.0962-4 7.0390-4 6.9827-4 6.9273-4 6.8727-4
 H, KJ/KG         4370.65  4443.37  4516.11  4588.85  4661.62  4734.39  4807.18  4879.98
 U, KJ/KG         1895.95  1948.05  2000.17  2052.29  2104.43  2156.58  2208.75  2260.93
 G, KJ/KG        -50537.7 -50995.6 -51454.1 -51913.1 -52372.8 -52833.0 -53293.9 -53755.3
 S, KJ/(KG)(K)    91.5139  91.6346  91.7544  91.8731  91.9910  92.1079  92.2239  92.3390

 M, (1/n)           2.016    2.016    2.016    2.016    2.016    2.016    2.016    2.016
 (dLV/dLP)t      -1.00000 -1.00000 -1.00000 -1.00000 -1.00000 -1.00000 -1.00000 -1.00000
 (dLV/dLT)p        1.0000   1.0000   1.0000   1.0000   1.0000   1.0000   1.0000   1.0000
 Cp, KJ/(KG)(K)   14.5436  14.5460  14.5484  14.5509  14.5535  14.5562  14.5590  14.5618
 GAMMAs            1.3959   1.3958   1.3957   1.3956   1.3955   1.3954   1.3953   1.3952
 SON VEL,M/SEC     1858.6   1866.3   1873.9   1881.5   1889.1   1896.6   1904.1   1911.6

 TRANSPORT PROPERTIES (GASES ONLY)
   CONDUCTIVITY IN UNITS OF MILLIWATTS/(CM)(K)

 VISC,MILLIPOISE  0.14377  0.14460  0.14542  0.14625  0.14707  0.14789  0.14871  0.14952

  WITH EQUILIBRIUM REACTIONS

 Cp, KJ/(KG)(K)   14.5436  14.5460  14.5484  14.5509  14.5535  14.5562  14.5590  14.5618
 CONDUCTIVITY      3.0342   3.0520   3.0698   3.0876   3.1054   3.1232   3.1410   3.1587
 PRANDTL NUMBER    0.6891   0.6892   0.6892   0.6892   0.6892   0.6893   0.6893   0.6893

  WITH FROZEN REACTIONS

 Cp, KJ/(KG)(K)   14.5436  14.5460  14.5484  14.5509  14.5535  14.5562  14.5590  14.5618
 CONDUCTIVITY      3.0342   3.0520   3.0698   3.0876   3.1054   3.1232   3.1410   3.1587
 PRANDTL NUMBER    0.6891   0.6892   0.6892   0.6892   0.6892   0.6893   0.6893   0.6893

 MOLE FRACTIONS

 *H2              1.00000  1.00000  1.00000  1.00000  1.00000  1.00000  1.00000  1.00000

  * THERMODYNAMIC PROPERTIES FITTED TO 20000.K

 NOTE. WEIGHT FRACTION OF FUEL IN TOTAL FUELS AND OF OXIDANT IN TOTAL OXIDANTS









               THERMODYNAMIC EQUILIBRIUM PROPERTIES AT ASSIGNED

                           TEMPERATURE AND PRESSURE

 CASE =                

             REACTANT                    WT FRACTION      ENERGY      TEMP
                                          (SEE NOTE)     KJ/KG-MOL      K  
             H2                           1.0000000         0.000      0.000

 O/F=    0.00000  %FUEL=100.000000  R,EQ.RATIO= 0.000000  PHI,EQ.RATIO= 0.000000

 THERMODYNAMIC PROPERTIES

 P, BAR           0.01800  0.01800  0.02000  0.02000  0.02000  0.02000  0.02000  0.02000
 T, K              640.00   645.00   575.00   580.00   585.00   590.00   595.00   600.00
 RHO, KG/CU M    6.8190-4 6.7662-4 8.4332-4 8.3605-4 8.2890-4 8.2188-4 8.1497-4 8.0818-4
 H, KJ/KG         4952.80  5025.63  4007.19  4079.86  4152.54  4225.23  4297.93  4370.65
 U, KJ/KG         2313.12  2365.33  1635.61  1687.66  1739.71  1791.78  1843.86  1895.95
 G, KJ/KG        -54217.3 -54679.8 -48007.7 -48460.3 -48913.5 -49367.4 -49821.9 -50277.0
 S, KJ/(KG)(K)    92.4532  92.5666  90.4607  90.5865  90.7113  90.8350  90.9577  91.0794

 M, (1/n)           2.016    2.016    2.016    2.016    2.016    2.016    2.016    2.016
 (dLV/dLP)t      -1.00000 -1.00000 -1.00000 -1.00000 -1.00000 -1.00000 -1.00000 -1.00000
 (dLV/dLT)p        1.0000   1.0000   1.0000   1.0000   1.0000   1.0000   1.0000   1.0000
 Cp, KJ/(KG)(K)   14.5648  14.5678  14.5330  14.5350  14.5370  14.5391  14.5413  14.5436
 GAMMAs            1.3951   1.3949   1.3963   1.3962   1.3961   1.3960   1.3960   1.3959
 SON VEL,M/SEC     1919.0   1926.4   1819.7   1827.6   1835.4   1843.1   1850.9   1858.6

 TRANSPORT PROPERTIES (GASES ONLY)
   CONDUCTIVITY IN UNITS OF MILLIWATTS/(CM)(K)

 VISC,MILLIPOISE  0.15034  0.15115  0.13960  0.14044  0.14128  0.14211  0.14294  0.14377

  WITH EQUILIBRIUM REACTIONS

 Cp, KJ/(KG)(K)   14.5648  14.5678  14.5330  14.5350  14.5370  14.5391  14.5413  14.5436
 CONDUCTIVITY      3.1764   3.1942   2.9442   2.9625   2.9805   2.9984   3.0163   3.0342
 PRANDTL NUMBER    0.6893   0.6894   0.6891   0.6891   0.6891   0.6891   0.6891   0.6891

  WITH FROZEN REACTIONS

 Cp, KJ/(KG)(K)   14.5648  14.5678  14.5330  14.5350  14.5370  14.5391  14.5413  14.5436
 CONDUCTIVITY      3.1764   3.1942   2.9442   2.9625   2.9805   2.9984   3.0163   3.0342
 PRANDTL NUMBER    0.6893   0.6894   0.6891   0.6891   0.6891   0.6891   0.6891   0.6891

 MOLE FRACTIONS

 *H2              1.00000  1.00000  1.00000  1.00000  1.00000  1.00000  1.00000  1.00000

  * THERMODYNAMIC PROPERTIES FITTED TO 20000.K

 NOTE. WEIGHT FRACTION OF FUEL IN TOTAL FUELS AND OF OXIDANT IN TOTAL OXIDANTS









               THERMODYNAMIC EQUILIBRIUM PROPERTIES AT ASSIGNED

                           TEMPERATURE AND PRESSURE

 CASE =                

             REACTANT                    WT FRACTION      ENERGY      TEMP
                                          (SEE NOTE)     KJ/KG-MOL      K  
             H2                           1.0000000         0.000      0.000

 O/F=    0.00000  %FUEL=100.000000  R,EQ.RATIO= 0.000000  PHI,EQ.RATIO= 0.000000

 THERMODYNAMIC PROPERTIES

 P, BAR           0.02000  0.02000  0.02000  0.02000  0.02000  0.02000  0.02000  0.02000
 T, K              605.00   610.00   615.00   620.00   625.00   630.00   635.00   640.00
 RHO, KG/CU M    8.0150-4 7.9493-4 7.8847-4 7.8211-4 7.7585-4 7.6970-4 7.6363-4 7.5767-4
 H, KJ/KG         4443.37  4516.11  4588.85  4661.62  4734.39  4807.18  4879.98  4952.80
 U, KJ/KG         1948.05  2000.17  2052.29  2104.43  2156.58  2208.75  2260.93  2313.12
 G, KJ/KG        -50732.7 -51189.0 -51645.9 -52103.4 -52561.4 -53020.1 -53479.3 -53939.1
 S, KJ/(KG)(K)    91.2001  91.3198  91.4386  91.5564  91.6733  91.7893  91.9044  92.0186

 M, (1/n)           2.016    2.016    2.016    2.016    2.016    2.016    2.016    2.016
 (dLV/dLP)t      -1.00000 -1.00000 -1.00000 -1.00000 -1.00000 -1.00000 -1.00000 -1.00000
 (dLV/dLT)p        1.0000   1.0000   1.0000   1.0000   1.0000   1.0000   1.0000   1.0000
 Cp, KJ/(KG)(K)   14.5460  14.5484  14.5509  14.5535  14.5562  14.5590  14.5618  14.5648
 GAMMAs            1.3958   1.3957   1.3956   1.3955   1.3954   1.3953   1.3952   1.3951
 SON VEL,M/SEC     1866.3   1873.9   1881.5   1889.1   1896.6   1904.1   1911.6   1919.0

 TRANSPORT PROPERTIES (GASES ONLY)
   CONDUCTIVITY IN UNITS OF MILLIWATTS/(CM)(K)

 VISC,MILLIPOISE  0.14460  0.14542  0.14625  0.14707  0.14789  0.14871  0.14952  0.15034

  WITH EQUILIBRIUM REACTIONS

 Cp, KJ/(KG)(K)   14.5460  14.5484  14.5509  14.5535  14.5562  14.5590  14.5618  14.5648
 CONDUCTIVITY      3.0520   3.0698   3.0876   3.1054   3.1232   3.1410   3.1587   3.1764
 PRANDTL NUMBER    0.6892   0.6892   0.6892   0.6892   0.6893   0.6893   0.6893   0.6893

  WITH FROZEN REACTIONS

 Cp, KJ/(KG)(K)   14.5460  14.5484  14.5509  14.5535  14.5562  14.5590  14.5618  14.5648
 CONDUCTIVITY      3.0520   3.0698   3.0876   3.1054   3.1232   3.1410   3.1587   3.1764
 PRANDTL NUMBER    0.6892   0.6892   0.6892   0.6892   0.6893   0.6893   0.6893   0.6893

 MOLE FRACTIONS

 *H2              1.00000  1.00000  1.00000  1.00000  1.00000  1.00000  1.00000  1.00000

  * THERMODYNAMIC PROPERTIES FITTED TO 20000.K

 NOTE. WEIGHT FRACTION OF FUEL IN TOTAL FUELS AND OF OXIDANT IN TOTAL OXIDANTS









               THERMODYNAMIC EQUILIBRIUM PROPERTIES AT ASSIGNED

                           TEMPERATURE AND PRESSURE

 CASE =                

             REACTANT                    WT FRACTION      ENERGY      TEMP
                                          (SEE NOTE)     KJ/KG-MOL      K  
             H2                           1.0000000         0.000      0.000

 O/F=    0.00000  %FUEL=100.000000  R,EQ.RATIO= 0.000000  PHI,EQ.RATIO= 0.000000

 THERMODYNAMIC PROPERTIES

 P, BAR           0.02000
 T, K              645.00
 RHO, KG/CU M    7.5180-4
 H, KJ/KG         5025.63
 U, KJ/KG         2365.33
 G, KJ/KG        -54399.5
 S, KJ/(KG)(K)    92.1320

 M, (1/n)           2.016
 (dLV/dLP)t      -1.00000
 (dLV/dLT)p        1.0000
 Cp, KJ/(KG)(K)   14.5678
 GAMMAs            1.3949
 SON VEL,M/SEC     1926.4

 TRANSPORT PROPERTIES (GASES ONLY)
   CONDUCTIVITY IN UNITS OF MILLIWATTS/(CM)(K)

 VISC,MILLIPOISE  0.15115

  WITH EQUILIBRIUM REACTIONS

 Cp, KJ/(KG)(K)   14.5678
 CONDUCTIVITY      3.1942
 PRANDTL NUMBER    0.6894

  WITH FROZEN REACTIONS

 Cp, KJ/(KG)(K)   14.5678
 CONDUCTIVITY      3.1942
 PRANDTL NUMBER    0.6894

 MOLE FRACTIONS

 *H2              1.00000

  * THERMODYNAMIC PROPERTIES FITTED TO 20000.K

 NOTE. WEIGHT FRACTION OF FUEL IN TOTAL FUELS AND OF OXIDANT IN TOTAL OXIDANTS



  
