
 *******************************************************************************

         NASA-GLENN CHEMICAL EQUILIBRIUM PROGRAM CEA2, MAY 21, 2004
                   BY  BONNIE MCBRIDE AND SANFORD GORDON
      REFS: NASA RP-1311, PART I, 1994 AND NASA RP-1311, PART II, 1996

 *******************************************************************************



  prob tp ions
  p,bar= 0.001,0.0011,0.0012,0.00132,0.00148,0.00165,0.0018,0.002,0.00225,0.0025,
 0.0028,0.0031,0.0035,0.0039,0.0044
  t,k= 2700,2710,2720,2730,2740,2750,2760,2770,2780,2790,2800,2810,2820,2830,2840
  
  reac
  na H2                wt%=100.0000
  
  output short
  output siunits
  output transport
  
 end





               THERMODYNAMIC EQUILIBRIUM PROPERTIES AT ASSIGNED

                           TEMPERATURE AND PRESSURE

 CASE =                

             REACTANT                    WT FRACTION      ENERGY      TEMP
                                          (SEE NOTE)     KJ/KG-MOL      K  
             H2                           1.0000000         0.000      0.000

 O/F=    0.00000  %FUEL=100.000000  R,EQ.RATIO= 0.000000  PHI,EQ.RATIO= 0.000000

 THERMODYNAMIC PROPERTIES

 P, BAR           0.00100  0.00100  0.00100  0.00100  0.00100  0.00100  0.00100  0.00100
 T, K             2700.00  2710.00  2720.00  2730.00  2740.00  2750.00  2760.00  2770.00
 RHO, KG/CU M    5.3805-6 5.3167-6 5.2549-6 5.1952-6 5.1376-6 5.0820-6 5.0285-6 4.9768-6
 H, KJ/KG        190573.7 193913.2 197184.5 200383.1 203505.3 206547.6 209507.2 212381.9
 U, KJ/KG        171988.3 175104.4 178154.6 181134.7 184041.0 186870.5 189620.4 192288.6
 G, KJ/KG       -322950.0-324856.9-326777.2-328709.4-330653.2-332608.3-334574.3-336550.8
 S, KJ/(KG)(K)   190.1940 191.4281 192.6330 193.8068 194.9484 196.0567 197.1310 198.1706

 M, (1/n)           1.208    1.198    1.188    1.179    1.170    1.162    1.154    1.146
 (dLV/dLP)t      -1.11073 -1.10830 -1.10574 -1.10306 -1.10029 -1.09743 -1.09450 -1.09153
 (dLV/dLT)p        3.2598   3.2023   3.1425   3.0808   3.0176   2.9532   2.8879   2.8221
 Cp, KJ/(KG)(K)  337.2113 330.6188 323.5659 316.1012 308.2755 300.1403 291.7478 283.1495
 GAMMAs            1.1188   1.1198   1.1208   1.1219   1.1230   1.1242   1.1255   1.1268
 SON VEL,M/SEC     4560.0   4589.3   4618.3   4647.0   4675.4   4703.3   4731.0   4758.2

 TRANSPORT PROPERTIES (GASES ONLY)
   CONDUCTIVITY IN UNITS OF MILLIWATTS/(CM)(K)

 VISC,MILLIPOISE  0.42056  0.41856  0.41655  0.41453  0.41253  0.41054  0.40858  0.40666

  WITH EQUILIBRIUM REACTIONS

 Cp, KJ/(KG)(K)  337.2113 330.6188 323.5659 316.1012 308.2755 300.1403 291.7478 283.1495
 CONDUCTIVITY    234.7494 228.9541 222.9424 216.7493 210.4100 203.9589 197.4297 190.8547
 PRANDTL NUMBER    0.6041   0.6044   0.6046   0.6045   0.6044   0.6041   0.6038   0.6033

  WITH FROZEN REACTIONS

 Cp, KJ/(KG)(K)   19.7666  19.8063  19.8449  19.8823  19.9185  19.9534  19.9872  20.0196
 CONDUCTIVITY     11.5887  11.5674  11.5466  11.5262  11.5063  11.4871  11.4687  11.4512
 PRANDTL NUMBER    0.7173   0.7167   0.7159   0.7151   0.7141   0.7131   0.7121   0.7109

 MOLE FRACTIONS

 *H               0.80163  0.81147  0.82094  0.83005  0.83878  0.84715  0.85516  0.86281
 *H2              0.19837  0.18853  0.17906  0.16995  0.16122  0.15285  0.14484  0.13719

  * THERMODYNAMIC PROPERTIES FITTED TO 20000.K

 NOTE. WEIGHT FRACTION OF FUEL IN TOTAL FUELS AND OF OXIDANT IN TOTAL OXIDANTS









               THERMODYNAMIC EQUILIBRIUM PROPERTIES AT ASSIGNED

                           TEMPERATURE AND PRESSURE

 CASE =                

             REACTANT                    WT FRACTION      ENERGY      TEMP
                                          (SEE NOTE)     KJ/KG-MOL      K  
             H2                           1.0000000         0.000      0.000

 O/F=    0.00000  %FUEL=100.000000  R,EQ.RATIO= 0.000000  PHI,EQ.RATIO= 0.000000

 THERMODYNAMIC PROPERTIES

 P, BAR           0.00100  0.00100  0.00100  0.00100  0.00100  0.00100  0.00100  0.00110
 T, K             2780.00  2790.00  2800.00  2810.00  2820.00  2830.00  2840.00  2700.00
 RHO, KG/CU M    4.9270-6 4.8791-6 4.8329-6 4.7885-6 4.7457-6 4.7045-6 4.6648-6 5.9822-6
 H, KJ/KG        215169.7 217869.4 220480.2 223001.7 225434.0 227777.4 230032.9 186540.1
 U, KJ/KG        194873.5 197373.8 199788.8 202118.2 204362.1 206521.0 208595.6 168152.3
 G, KJ/KG       -338537.5-340534.2-342540.3-344555.6-346579.8-348612.4-350653.1-321186.8
 S, KJ/(KG)(K)   199.1753 200.1447 201.0788 201.9777 202.8417 203.6713 204.4669 188.0470

 M, (1/n)           1.139    1.132    1.125    1.119    1.113    1.107    1.102    1.221
 (dLV/dLP)t      -1.08852 -1.08549 -1.08246 -1.07943 -1.07643 -1.07345 -1.07051 -1.11357
 (dLV/dLT)p        2.7561   2.6902   2.6245   2.5595   2.4953   2.4321   2.3702   3.3177
 Cp, KJ/(KG)(K)  274.3960 265.5361 256.6168 247.6820 238.7730 229.9278 221.1810 341.8467
 GAMMAs            1.1281   1.1296   1.1311   1.1327   1.1343   1.1361   1.1379   1.1182
 SON VEL,M/SEC     4785.1   4811.6   4837.8   4863.6   4889.0   4914.2   4939.0   4534.5

 TRANSPORT PROPERTIES (GASES ONLY)
   CONDUCTIVITY IN UNITS OF MILLIWATTS/(CM)(K)

 VISC,MILLIPOISE  0.40478  0.40295  0.40118  0.39947  0.39783  0.39626  0.39476  0.42470

  WITH EQUILIBRIUM REACTIONS

 Cp, KJ/(KG)(K)  274.3960 265.5361 256.6168 247.6820 238.7730 229.9278 221.1810 341.8467
 CONDUCTIVITY    184.2647 177.6884 171.1526 164.6821 158.2991 152.0236 145.8731 240.5486
 PRANDTL NUMBER    0.6028   0.6022   0.6015   0.6008   0.6001   0.5993   0.5986   0.6035

  WITH FROZEN REACTIONS

 Cp, KJ/(KG)(K)   20.0509  20.0808  20.1096  20.1371  20.1634  20.1884  20.2124  19.7207
 CONDUCTIVITY     11.4348  11.4194  11.4053  11.3925  11.3810  11.3708  11.3620  11.6629
 PRANDTL NUMBER    0.7098   0.7086   0.7074   0.7061   0.7048   0.7035   0.7023   0.7181

 MOLE FRACTIONS

 *H               0.87012  0.87709  0.88373  0.89005  0.89605  0.90176  0.90717  0.78875
 *H2              0.12988  0.12291  0.11627  0.10995  0.10395  0.09824  0.09283  0.21125

  * THERMODYNAMIC PROPERTIES FITTED TO 20000.K

 NOTE. WEIGHT FRACTION OF FUEL IN TOTAL FUELS AND OF OXIDANT IN TOTAL OXIDANTS









               THERMODYNAMIC EQUILIBRIUM PROPERTIES AT ASSIGNED

                           TEMPERATURE AND PRESSURE

 CASE =                

             REACTANT                    WT FRACTION      ENERGY      TEMP
                                          (SEE NOTE)     KJ/KG-MOL      K  
             H2                           1.0000000         0.000      0.000

 O/F=    0.00000  %FUEL=100.000000  R,EQ.RATIO= 0.000000  PHI,EQ.RATIO= 0.000000

 THERMODYNAMIC PROPERTIES

 P, BAR           0.00110  0.00110  0.00110  0.00110  0.00110  0.00110  0.00110  0.00110
 T, K             2710.00  2720.00  2730.00  2740.00  2750.00  2760.00  2770.00  2780.00
 RHO, KG/CU M    5.9099-6 5.8398-6 5.7721-6 5.7066-6 5.6434-6 5.5824-6 5.5235-6 5.4667-6
 H, KJ/KG        189929.8 193258.4 196521.1 199713.6 202832.0 205872.8 208833.2 211710.7
 U, KJ/KG        171316.9 174422.3 177463.9 180437.8 183340.2 186167.9 188918.2 191588.8
 G, KJ/KG       -323073.5-324972.7-326883.9-328807.0-330741.6-332687.5-334644.1-336611.4
 S, KJ/(KG)(K)   189.3001 190.5261 191.7235 192.8907 194.0268 195.1305 196.2012 197.2382

 M, (1/n)           1.211    1.201    1.191    1.182    1.173    1.165    1.156    1.149
 (dLV/dLP)t      -1.11135 -1.10898 -1.10648 -1.10385 -1.10113 -1.09832 -1.09545 -1.09251
 (dLV/dLT)p        3.2643   3.2082   3.1498   3.0894   3.0275   2.9642   2.9001   2.8353
 Cp, KJ/(KG)(K)  335.9967 329.6431 322.8296 315.6028 308.0110 300.1038 291.9315 283.5438
 GAMMAs            1.1191   1.1201   1.1211   1.1222   1.1233   1.1245   1.1257   1.1270
 SON VEL,M/SEC     4564.1   4593.3   4622.3   4651.0   4679.3   4707.2   4734.8   4762.1

 TRANSPORT PROPERTIES (GASES ONLY)
   CONDUCTIVITY IN UNITS OF MILLIWATTS/(CM)(K)

 VISC,MILLIPOISE  0.42274  0.42076  0.41876  0.41677  0.41477  0.41280  0.41085  0.40893

  WITH EQUILIBRIUM REACTIONS

 Cp, KJ/(KG)(K)  335.9967 329.6431 322.8296 315.6028 308.0110 300.1038 291.9315 283.5438
 CONDUCTIVITY    235.1495 229.4961 223.6222 217.5618 211.3489 205.0174 198.6000 192.1283
 PRANDTL NUMBER    0.6040   0.6044   0.6045   0.6046   0.6045   0.6043   0.6039   0.6035

  WITH FROZEN REACTIONS

 Cp, KJ/(KG)(K)   19.7612  19.8006  19.8390  19.8762  19.9122  19.9470  19.9807  20.0131
 CONDUCTIVITY     11.6421  11.6212  11.6005  11.5802  11.5603  11.5410  11.5225  11.5049
 PRANDTL NUMBER    0.7176   0.7169   0.7162   0.7153   0.7144   0.7135   0.7124   0.7113

 MOLE FRACTIONS

 *H               0.79896  0.80882  0.81830  0.82743  0.83619  0.84459  0.85263  0.86033
 *H2              0.20104  0.19118  0.18170  0.17257  0.16381  0.15541  0.14737  0.13967

  * THERMODYNAMIC PROPERTIES FITTED TO 20000.K

 NOTE. WEIGHT FRACTION OF FUEL IN TOTAL FUELS AND OF OXIDANT IN TOTAL OXIDANTS









               THERMODYNAMIC EQUILIBRIUM PROPERTIES AT ASSIGNED

                           TEMPERATURE AND PRESSURE

 CASE =                

             REACTANT                    WT FRACTION      ENERGY      TEMP
                                          (SEE NOTE)     KJ/KG-MOL      K  
             H2                           1.0000000         0.000      0.000

 O/F=    0.00000  %FUEL=100.000000  R,EQ.RATIO= 0.000000  PHI,EQ.RATIO= 0.000000

 THERMODYNAMIC PROPERTIES

 P, BAR           0.00110  0.00110  0.00110  0.00110  0.00110  0.00110  0.00120  0.00120
 T, K             2790.00  2800.00  2810.00  2820.00  2830.00  2840.00  2700.00  2710.00
 RHO, KG/CU M    5.4119-6 5.3592-6 5.3084-6 5.2594-6 5.2123-6 5.1669-6 6.5915-6 6.5106-6
 H, KJ/KG        214503.5 217210.1 219829.6 222361.5 224805.6 227162.4 182811.6 186238.2
 U, KJ/KG        194178.1 196684.6 199107.6 201446.6 203701.6 205872.9 164606.4 167806.8
 G, KJ/KG       -338588.8-340576.1-342572.9-344578.8-346593.6-348616.9-319594.8-321461.9
 S, KJ/(KG)(K)   198.2410 199.2093 200.1432 201.0427 201.9079 202.7392 186.0764 187.3432

 M, (1/n)           1.141    1.134    1.127    1.121    1.115    1.109    1.233    1.222
 (dLV/dLP)t      -1.08954 -1.08655 -1.08355 -1.08054 -1.07756 -1.07460 -1.11592 -1.11390
 (dLV/dLT)p        2.7702   2.7051   2.6402   2.5759   2.5122   2.4495   3.3656   3.3162
 Cp, KJ/(KG)(K)  274.9901 266.3180 257.5733 248.7995 240.0373 231.3243 345.1908 340.0467
 GAMMAs            1.1284   1.1298   1.1313   1.1328   1.1344   1.1362   1.1177   1.1186
 SON VEL,M/SEC     4789.0   4815.5   4841.7   4867.5   4893.0   4918.2   4511.0   4540.7

 TRANSPORT PROPERTIES (GASES ONLY)
   CONDUCTIVITY IN UNITS OF MILLIWATTS/(CM)(K)

 VISC,MILLIPOISE  0.40705  0.40522  0.40344  0.40173  0.40008  0.39849  0.42841  0.42651

  WITH EQUILIBRIUM REACTIONS

 Cp, KJ/(KG)(K)  274.9901 266.3180 257.5733 248.7995 240.0373 231.3243 345.1908 340.0467
 CONDUCTIVITY    185.6327 179.1417 172.6818 166.2777 159.9517 153.7240 245.3439 240.3396
 PRANDTL NUMBER    0.6030   0.6024   0.6018   0.6011   0.6004   0.5997   0.6028   0.6035

  WITH FROZEN REACTIONS

 Cp, KJ/(KG)(K)   20.0442  20.0742  20.1029  20.1304  20.1568  20.1819  19.6783  19.7194
 CONDUCTIVITY     11.4883  11.4727  11.4584  11.4452  11.4334  11.4228  11.7307  11.7104
 PRANDTL NUMBER    0.7102   0.7090   0.7078   0.7066   0.7053   0.7041   0.7187   0.7182

 MOLE FRACTIONS

 *H               0.86768  0.87470  0.88139  0.88776  0.89383  0.89959  0.77659  0.78713
 *H2              0.13232  0.12530  0.11861  0.11224  0.10617  0.10041  0.22341  0.21287

  * THERMODYNAMIC PROPERTIES FITTED TO 20000.K

 NOTE. WEIGHT FRACTION OF FUEL IN TOTAL FUELS AND OF OXIDANT IN TOTAL OXIDANTS









               THERMODYNAMIC EQUILIBRIUM PROPERTIES AT ASSIGNED

                           TEMPERATURE AND PRESSURE

 CASE =                

             REACTANT                    WT FRACTION      ENERGY      TEMP
                                          (SEE NOTE)     KJ/KG-MOL      K  
             H2                           1.0000000         0.000      0.000

 O/F=    0.00000  %FUEL=100.000000  R,EQ.RATIO= 0.000000  PHI,EQ.RATIO= 0.000000

 THERMODYNAMIC PROPERTIES

 P, BAR           0.00120  0.00120  0.00120  0.00120  0.00120  0.00120  0.00120  0.00120
 T, K             2720.00  2730.00  2740.00  2750.00  2760.00  2770.00  2780.00  2790.00
 RHO, KG/CU M    6.4322-6 6.3563-6 6.2828-6 6.2117-6 6.1431-6 6.0768-6 6.0128-6 5.9511-6
 H, KJ/KG        189610.7 192923.9 196173.0 199353.7 202462.0 205494.7 208448.8 211321.8
 U, KJ/KG        170954.6 174044.9 177073.2 180035.4 182927.9 185747.4 188491.4 191157.4
 G, KJ/KG       -323341.5-325233.5-327137.4-329053.2-330980.3-332918.6-334867.7-336827.2
 S, KJ/(KG)(K)   188.5854 189.8012 190.9892 192.1479 193.2762 194.3730 195.4376 196.4692

 M, (1/n)           1.212    1.202    1.193    1.184    1.175    1.166    1.158    1.150
 (dLV/dLP)t      -1.11172 -1.10940 -1.10694 -1.10436 -1.10167 -1.09891 -1.09607 -1.09317
 (dLV/dLT)p        3.2638   3.2087   3.1514   3.0921   3.0312   2.9690   2.9058   2.8419
 Cp, KJ/(KG)(K)  334.3667 328.1896 321.5571 314.5139 307.1065 299.3828 291.3913 283.1803
 GAMMAs            1.1195   1.1205   1.1215   1.1226   1.1237   1.1249   1.1261   1.1273
 SON VEL,M/SEC     4570.2   4599.4   4628.3   4656.9   4685.1   4713.0   4740.6   4767.8

 TRANSPORT PROPERTIES (GASES ONLY)
   CONDUCTIVITY IN UNITS OF MILLIWATTS/(CM)(K)

 VISC,MILLIPOISE  0.42458  0.42262  0.42064  0.41866  0.41668  0.41471  0.41277  0.41086

  WITH EQUILIBRIUM REACTIONS

 Cp, KJ/(KG)(K)  334.3667 328.1896 321.5571 314.5139 307.1065 299.3828 291.3913 283.1803
 CONDUCTIVITY    235.0498 229.5062 223.7413 217.7883 211.6803 205.4501 199.1298 192.7503
 PRANDTL NUMBER    0.6040   0.6043   0.6045   0.6046   0.6045   0.6043   0.6040   0.6036

  WITH FROZEN REACTIONS

 Cp, KJ/(KG)(K)   19.7595  19.7986  19.8367  19.8736  19.9094  19.9440  19.9774  20.0096
 CONDUCTIVITY     11.6897  11.6691  11.6485  11.6282  11.6084  11.5892  11.5707  11.5530
 PRANDTL NUMBER    0.7177   0.7170   0.7163   0.7155   0.7146   0.7137   0.7127   0.7116

 MOLE FRACTIONS

 *H               0.79732  0.80715  0.81662  0.82574  0.83449  0.84289  0.85094  0.85865
 *H2              0.20268  0.19285  0.18338  0.17426  0.16551  0.15711  0.14906  0.14135

  * THERMODYNAMIC PROPERTIES FITTED TO 20000.K

 NOTE. WEIGHT FRACTION OF FUEL IN TOTAL FUELS AND OF OXIDANT IN TOTAL OXIDANTS









               THERMODYNAMIC EQUILIBRIUM PROPERTIES AT ASSIGNED

                           TEMPERATURE AND PRESSURE

 CASE =                

             REACTANT                    WT FRACTION      ENERGY      TEMP
                                          (SEE NOTE)     KJ/KG-MOL      K  
             H2                           1.0000000         0.000      0.000

 O/F=    0.00000  %FUEL=100.000000  R,EQ.RATIO= 0.000000  PHI,EQ.RATIO= 0.000000

 THERMODYNAMIC PROPERTIES

 P, BAR           0.00120  0.00120  0.00120  0.00120  0.00120  0.00132  0.00132  0.00132
 T, K             2800.00  2810.00  2820.00  2830.00  2840.00  2700.00  2710.00  2720.00
 RHO, KG/CU M    5.8915-6 5.8342-6 5.7788-6 5.7256-6 5.6742-6 7.3321-6 7.2408-6 7.1521-6
 H, KJ/KG        214111.8 216817.4 219437.4 221971.3 224418.9 178688.7 182146.0 185557.0
 U, KJ/KG        193743.7 196248.8 198672.0 201012.6 203270.6 160685.5 163915.9 167101.0
 G, KJ/KG       -338796.9-340776.5-342765.5-344763.6-346770.5-317869.2-319714.7-321572.9
 S, KJ/(KG)(K)   197.4674 198.4320 199.3627 200.2597 201.1230 183.9103 185.1885 186.4448

 M, (1/n)           1.143    1.136    1.129    1.123    1.117    1.247    1.236    1.225
 (dLV/dLP)t      -1.09023 -1.08727 -1.08429 -1.08132 -1.07835 -1.11820 -1.11642 -1.11447
 (dLV/dLT)p        2.7777   2.7133   2.6492   2.5855   2.5225   3.4122   3.3674   3.3194
 Cp, KJ/(KG)(K)  274.7977 266.2898 257.7015 249.0753 240.4511 347.8644 343.5134 338.5997
 GAMMAs            1.1287   1.1301   1.1315   1.1331   1.1347   1.1173   1.1181   1.1190
 SON VEL,M/SEC     4794.7   4821.2   4847.4   4873.2   4898.7   4484.9   4514.8   4544.5

 TRANSPORT PROPERTIES (GASES ONLY)
   CONDUCTIVITY IN UNITS OF MILLIWATTS/(CM)(K)

 VISC,MILLIPOISE  0.40899  0.40716  0.40539  0.40367  0.40201  0.43240  0.43058  0.42871

  WITH EQUILIBRIUM REACTIONS

 Cp, KJ/(KG)(K)  274.7977 266.2898 257.7015 249.0752 240.4511 347.8644 343.5134 338.5997
 CONDUCTIVITY    186.3413 179.9309 173.5453 167.2089 160.9438 250.0135 245.4731 240.6167
 PRANDTL NUMBER    0.6031   0.6026   0.6020   0.6013   0.6006   0.6016   0.6026   0.6033

  WITH FROZEN REACTIONS

 Cp, KJ/(KG)(K)   20.0407  20.0705  20.0991  20.1265  20.1528  19.6313  19.6731  19.7139
 CONDUCTIVITY     11.5363  11.5207  11.5061  11.4928  11.4807  11.8044  11.7849  11.7648
 PRANDTL NUMBER    0.7105   0.7093   0.7081   0.7069   0.7057   0.7191   0.7188   0.7184

 MOLE FRACTIONS

 *H               0.86601  0.87305  0.87976  0.88615  0.89224  0.76286  0.77374  0.78428
 *H2              0.13399  0.12695  0.12024  0.11385  0.10776  0.23714  0.22626  0.21572

  * THERMODYNAMIC PROPERTIES FITTED TO 20000.K

 NOTE. WEIGHT FRACTION OF FUEL IN TOTAL FUELS AND OF OXIDANT IN TOTAL OXIDANTS









               THERMODYNAMIC EQUILIBRIUM PROPERTIES AT ASSIGNED

                           TEMPERATURE AND PRESSURE

 CASE =                

             REACTANT                    WT FRACTION      ENERGY      TEMP
                                          (SEE NOTE)     KJ/KG-MOL      K  
             H2                           1.0000000         0.000      0.000

 O/F=    0.00000  %FUEL=100.000000  R,EQ.RATIO= 0.000000  PHI,EQ.RATIO= 0.000000

 THERMODYNAMIC PROPERTIES

 P, BAR           0.00132  0.00132  0.00132  0.00132  0.00132  0.00132  0.00132  0.00132
 T, K             2730.00  2740.00  2750.00  2760.00  2770.00  2780.00  2790.00  2800.00
 RHO, KG/CU M    7.0662-6 6.9829-6 6.9023-6 6.8243-6 6.7489-6 6.6761-6 6.6058-6 6.5379-6
 H, KJ/KG        188916.2 192218.5 195459.1 198633.6 201738.3 204769.5 207724.4 210600.4
 U, KJ/KG        170235.7 173315.2 176335.1 179291.1 182179.7 184997.5 187741.9 190410.5
 G, KJ/KG       -323443.5-325326.4-327221.2-329127.6-331045.4-332974.3-334914.0-336864.1
 S, KJ/(KG)(K)   187.6776 188.8850 190.0655 191.2178 192.3407 193.4330 194.4940 195.5230

 M, (1/n)           1.215    1.205    1.196    1.186    1.178    1.169    1.161    1.153
 (dLV/dLP)t      -1.11235 -1.11009 -1.10769 -1.10517 -1.10254 -1.09983 -1.09704 -1.09418
 (dLV/dLT)p        3.2685   3.2149   3.1590   3.1010   3.0414   2.9804   2.9183   2.8555
 Cp, KJ/(KG)(K)  333.1556 327.2174 320.8249 314.0202 306.8478 299.3537 291.5843 283.5865
 GAMMAs            1.1199   1.1209   1.1218   1.1229   1.1240   1.1251   1.1263   1.1276
 SON VEL,M/SEC     4573.9   4603.0   4631.9   4660.4   4688.7   4716.6   4744.1   4771.3

 TRANSPORT PROPERTIES (GASES ONLY)
   CONDUCTIVITY IN UNITS OF MILLIWATTS/(CM)(K)

 VISC,MILLIPOISE  0.42681  0.42487  0.42291  0.42095  0.41898  0.41703  0.41510  0.41319

  WITH EQUILIBRIUM REACTIONS

 Cp, KJ/(KG)(K)  333.1556 327.2174 320.8249 314.0202 306.8478 299.3537 291.5843 283.5865
 CONDUCTIVITY    235.4734 230.0737 224.4490 218.6313 212.6526 206.5448 200.3392 194.0662
 PRANDTL NUMBER    0.6039   0.6043   0.6045   0.6046   0.6046   0.6044   0.6042   0.6038

  WITH FROZEN REACTIONS

 Cp, KJ/(KG)(K)   19.7537  19.7926  19.8304  19.8671  19.9027  19.9372  19.9705  20.0026
 CONDUCTIVITY     11.7445  11.7240  11.7036  11.6834  11.6636  11.6443  11.6257  11.6079
 PRANDTL NUMBER    0.7179   0.7173   0.7166   0.7158   0.7150   0.7140   0.7130   0.7120

 MOLE FRACTIONS

 *H               0.79448  0.80432  0.81381  0.82294  0.83173  0.84016  0.84825  0.85600
 *H2              0.20552  0.19568  0.18619  0.17706  0.16827  0.15984  0.15175  0.14400

  * THERMODYNAMIC PROPERTIES FITTED TO 20000.K

 NOTE. WEIGHT FRACTION OF FUEL IN TOTAL FUELS AND OF OXIDANT IN TOTAL OXIDANTS









               THERMODYNAMIC EQUILIBRIUM PROPERTIES AT ASSIGNED

                           TEMPERATURE AND PRESSURE

 CASE =                

             REACTANT                    WT FRACTION      ENERGY      TEMP
                                          (SEE NOTE)     KJ/KG-MOL      K  
             H2                           1.0000000         0.000      0.000

 O/F=    0.00000  %FUEL=100.000000  R,EQ.RATIO= 0.000000  PHI,EQ.RATIO= 0.000000

 THERMODYNAMIC PROPERTIES

 P, BAR           0.00132  0.00132  0.00132  0.00132  0.00148  0.00148  0.00148  0.00148
 T, K             2810.00  2820.00  2830.00  2840.00  2700.00  2710.00  2720.00  2730.00
 RHO, KG/CU M    6.4724-6 6.4093-6 6.3484-6 6.2896-6 8.3339-6 8.2285-6 8.1261-6 8.0267-6
 H, KJ/KG        213395.5 216108.1 218737.0 221281.5 173704.0 177184.6 180628.4 184029.6
 U, KJ/KG        193001.3 195512.9 197944.2 200294.7 155945.2 159198.4 162415.6 165591.2
 G, KJ/KG       -338824.3-340794.4-342773.9-344762.5-315823.5-317642.9-319475.2-321320.1
 S, KJ/(KG)(K)   196.5195 197.4831 198.4137 199.3113 181.3065 182.5932 183.8616 185.1098

 M, (1/n)           1.146    1.138    1.132    1.125    1.264    1.253    1.242    1.231
 (dLV/dLP)t      -1.09129 -1.08836 -1.08542 -1.08247 -1.12052 -1.11904 -1.11738 -1.11554
 (dLV/dLT)p        2.7922   2.7288   2.6654   2.6024   3.4595   3.4207   3.3784   3.3328
 Cp, KJ/(KG)(K)  275.4065 267.0897 258.6798 250.2185 349.7032 346.3158 342.3451 337.8158
 GAMMAs            1.1289   1.1303   1.1317   1.1332   1.1168   1.1176   1.1184   1.1192
 SON VEL,M/SEC     4798.2   4824.7   4850.9   4876.7   4453.4   4483.4   4513.2   4542.8

 TRANSPORT PROPERTIES (GASES ONLY)
   CONDUCTIVITY IN UNITS OF MILLIWATTS/(CM)(K)

 VISC,MILLIPOISE  0.41132  0.40949  0.40771  0.40599  0.43705  0.43535  0.43358  0.43176

  WITH EQUILIBRIUM REACTIONS

 Cp, KJ/(KG)(K)  275.4065 267.0897 258.6798 250.2185 349.7032 346.3158 342.3451 337.8158
 CONDUCTIVITY    187.7549 181.4331 175.1268 168.8602 254.7714 250.8224 246.5270 241.9106
 PRANDTL NUMBER    0.6033   0.6028   0.6022   0.6016   0.5999   0.6011   0.6021   0.6029

  WITH FROZEN REACTIONS

 Cp, KJ/(KG)(K)   20.0336  20.0634  20.0921  20.1195  19.5746  19.6169  19.6584  19.6990
 CONDUCTIVITY     11.5911  11.5752  11.5604  11.5468  11.8916  11.8734  11.8545  11.8349
 PRANDTL NUMBER    0.7109   0.7098   0.7086   0.7074   0.7194   0.7193   0.7190   0.7187

 MOLE FRACTIONS

 *H               0.86342  0.87050  0.87727  0.88372  0.74585  0.75711  0.76805  0.77865
 *H2              0.13658  0.12950  0.12273  0.11628  0.25415  0.24289  0.23195  0.22135

  * THERMODYNAMIC PROPERTIES FITTED TO 20000.K

 NOTE. WEIGHT FRACTION OF FUEL IN TOTAL FUELS AND OF OXIDANT IN TOTAL OXIDANTS









               THERMODYNAMIC EQUILIBRIUM PROPERTIES AT ASSIGNED

                           TEMPERATURE AND PRESSURE

 CASE =                

             REACTANT                    WT FRACTION      ENERGY      TEMP
                                          (SEE NOTE)     KJ/KG-MOL      K  
             H2                           1.0000000         0.000      0.000

 O/F=    0.00000  %FUEL=100.000000  R,EQ.RATIO= 0.000000  PHI,EQ.RATIO= 0.000000

 THERMODYNAMIC PROPERTIES

 P, BAR           0.00148  0.00148  0.00148  0.00148  0.00148  0.00148  0.00148  0.00148
 T, K             2740.00  2750.00  2760.00  2770.00  2780.00  2790.00  2800.00  2810.00
 RHO, KG/CU M    7.9302-6 7.8366-6 7.7459-6 7.6581-6 7.5732-6 7.4911-6 7.4118-6 7.3351-6
 H, KJ/KG        187382.9 190683.1 193925.4 197105.4 200219.0 203262.8 206233.5 209128.5
 U, KJ/KG        168720.0 171797.3 174818.5 177779.5 180676.5 183506.0 186265.2 188951.6
 G, KJ/KG       -323177.4-325046.7-326928.0-328821.0-330725.2-332640.6-334566.7-336503.4
 S, KJ/(KG)(K)   186.3359 187.5381 188.7150 189.8651 190.9872 192.0801 193.1429 194.1750

 M, (1/n)           1.221    1.211    1.201    1.192    1.183    1.174    1.166    1.158
 (dLV/dLP)t      -1.11354 -1.11138 -1.10908 -1.10665 -1.10412 -1.10148 -1.09877 -1.09598
 (dLV/dLT)p        3.2842   3.2329   3.1791   3.1232   3.0654   3.0062   2.9457   2.8844
 Cp, KJ/(KG)(K)  332.7566 327.2004 321.1836 314.7453 307.9271 300.7720 293.3245 285.6292
 GAMMAs            1.1201   1.1211   1.1220   1.1230   1.1241   1.1252   1.1264   1.1276
 SON VEL,M/SEC     4572.2   4601.3   4630.2   4658.7   4687.0   4715.0   4742.6   4769.9

 TRANSPORT PROPERTIES (GASES ONLY)
   CONDUCTIVITY IN UNITS OF MILLIWATTS/(CM)(K)

 VISC,MILLIPOISE  0.42989  0.42799  0.42606  0.42412  0.42218  0.42024  0.41831  0.41641

  WITH EQUILIBRIUM REACTIONS

 Cp, KJ/(KG)(K)  332.7566 327.2004 321.1836 314.7453 307.9271 300.7720 293.3245 285.6292
 CONDUCTIVITY    237.0004 231.8249 226.4140 220.7981 215.0081 209.0748 203.0288 196.8996
 PRANDTL NUMBER    0.6036   0.6041   0.6044   0.6046   0.6046   0.6045   0.6044   0.6041

  WITH FROZEN REACTIONS

 Cp, KJ/(KG)(K)   19.7387  19.7774  19.8151  19.8518  19.8874  19.9220  19.9554  19.9877
 CONDUCTIVITY     11.8149  11.7947  11.7745  11.7543  11.7345  11.7151  11.6963  11.6782
 PRANDTL NUMBER    0.7182   0.7177   0.7170   0.7163   0.7155   0.7146   0.7137   0.7127

 MOLE FRACTIONS

 *H               0.78892  0.79884  0.80842  0.81766  0.82655  0.83510  0.84330  0.85117
 *H2              0.21108  0.20116  0.19158  0.18234  0.17345  0.16490  0.15670  0.14883

  * THERMODYNAMIC PROPERTIES FITTED TO 20000.K

 NOTE. WEIGHT FRACTION OF FUEL IN TOTAL FUELS AND OF OXIDANT IN TOTAL OXIDANTS









               THERMODYNAMIC EQUILIBRIUM PROPERTIES AT ASSIGNED

                           TEMPERATURE AND PRESSURE

 CASE =                

             REACTANT                    WT FRACTION      ENERGY      TEMP
                                          (SEE NOTE)     KJ/KG-MOL      K  
             H2                           1.0000000         0.000      0.000

 O/F=    0.00000  %FUEL=100.000000  R,EQ.RATIO= 0.000000  PHI,EQ.RATIO= 0.000000

 THERMODYNAMIC PROPERTIES

 P, BAR           0.00148  0.00148  0.00148  0.00165  0.00165  0.00165  0.00165  0.00165
 T, K             2820.00  2830.00  2840.00  2700.00  2710.00  2720.00  2730.00  2740.00
 RHO, KG/CU M    7.2611-6 7.1898-6 7.1209-6 9.4146-6 9.2943-6 9.1771-6 9.0631-6 8.9523-6
 H, KJ/KG        211945.4 214682.6 217338.5 168950.2 172439.1 175900.3 179328.0 182716.4
 U, KJ/KG        191563.0 194097.7 196554.5 151424.3 154686.3 157920.9 161122.3 164285.4
 G, KJ/KG       -338450.1-340406.8-342372.9-313905.1-315699.9-317507.6-319327.9-321160.7
 S, KJ/(KG)(K)   195.1757 196.1446 197.0815 178.8353 180.1251 181.4000 182.6578 183.8967

 M, (1/n)           1.150    1.143    1.136    1.281    1.269    1.258    1.247    1.236
 (dLV/dLP)t      -1.09314 -1.09027 -1.08737 -1.12228 -1.12110 -1.11973 -1.11817 -1.11643
 (dLV/dLT)p        2.8224   2.7601   2.6977   3.4954   3.4626   3.4260   3.3859   3.3425
 Cp, KJ/(KG)(K)  277.7308 269.6731 261.4992 350.0825 347.6059 344.5383 340.8965 336.7023
 GAMMAs            1.1289   1.1302   1.1316   1.1164   1.1171   1.1179   1.1187   1.1195
 SON VEL,M/SEC     4796.8   4823.4   4849.7   4423.3   4453.3   4483.2   4512.9   4542.5

 TRANSPORT PROPERTIES (GASES ONLY)
   CONDUCTIVITY IN UNITS OF MILLIWATTS/(CM)(K)

 VISC,MILLIPOISE  0.41453  0.41270  0.41090  0.44129  0.43972  0.43807  0.43636  0.43458

  WITH EQUILIBRIUM REACTIONS

 Cp, KJ/(KG)(K)  277.7307 269.6731 261.4992 350.0825 347.6059 344.5383 340.8965 336.7023
 CONDUCTIVITY    190.7162 184.5061 178.2952 258.4036 255.0420 251.3117 247.2341 242.8326
 PRANDTL NUMBER    0.6037   0.6032   0.6027   0.5979   0.5993   0.6006   0.6017   0.6026

  WITH FROZEN REACTIONS

 Cp, KJ/(KG)(K)   20.0188  20.0488  20.0777  19.5206  19.5632  19.6051  19.6463  19.6866
 CONDUCTIVITY     11.6610  11.6447  11.6294  11.9724  11.9561  11.9386  11.9202  11.9011
 PRANDTL NUMBER    0.7116   0.7105   0.7094   0.7195   0.7195   0.7194   0.7192   0.7189

 MOLE FRACTIONS

 *H               0.85871  0.86593  0.87282  0.72918  0.74077  0.75206  0.76303  0.77368
 *H2              0.14129  0.13407  0.12718  0.27082  0.25923  0.24794  0.23697  0.22632

  * THERMODYNAMIC PROPERTIES FITTED TO 20000.K

 NOTE. WEIGHT FRACTION OF FUEL IN TOTAL FUELS AND OF OXIDANT IN TOTAL OXIDANTS









               THERMODYNAMIC EQUILIBRIUM PROPERTIES AT ASSIGNED

                           TEMPERATURE AND PRESSURE

 CASE =                

             REACTANT                    WT FRACTION      ENERGY      TEMP
                                          (SEE NOTE)     KJ/KG-MOL      K  
             H2                           1.0000000         0.000      0.000

 O/F=    0.00000  %FUEL=100.000000  R,EQ.RATIO= 0.000000  PHI,EQ.RATIO= 0.000000

 THERMODYNAMIC PROPERTIES

 P, BAR           0.00165  0.00165  0.00165  0.00165  0.00165  0.00165  0.00165  0.00165
 T, K             2750.00  2760.00  2770.00  2780.00  2790.00  2800.00  2810.00  2820.00
 RHO, KG/CU M    8.8447-6 8.7403-6 8.6391-6 8.5410-6 8.4461-6 8.3542-6 8.2654-6 8.1796-6
 H, KJ/KG        186060.3 189354.4 192594.0 195774.6 198892.2 201943.0 204923.9 207831.9
 U, KJ/KG        167405.1 170476.3 173494.7 176456.1 179356.5 182192.5 184961.2 187659.7
 G, KJ/KG       -323005.7-324862.9-326731.9-328612.4-330504.3-332407.3-334321.0-336245.3
 S, KJ/(KG)(K)   185.1149 186.3106 187.4823 188.6284 189.7479 190.8394 191.9021 192.9352

 M, (1/n)           1.226    1.216    1.206    1.196    1.187    1.179    1.170    1.162
 (dLV/dLP)t      -1.11453 -1.11246 -1.11026 -1.10792 -1.10546 -1.10291 -1.10026 -1.09754
 (dLV/dLT)p        3.2960   3.2467   3.1949   3.1409   3.0849   3.0273   2.9684   2.9085
 Cp, KJ/(KG)(K)  331.9815 326.7640 321.0831 314.9753 308.4792 301.6356 294.4864 287.0745
 GAMMAs            1.1204   1.1213   1.1223   1.1233   1.1243   1.1254   1.1265   1.1277
 SON VEL,M/SEC     4571.8   4600.9   4629.7   4658.3   4686.6   4714.5   4742.2   4769.5

 TRANSPORT PROPERTIES (GASES ONLY)
   CONDUCTIVITY IN UNITS OF MILLIWATTS/(CM)(K)

 VISC,MILLIPOISE  0.43275  0.43088  0.42899  0.42707  0.42515  0.42322  0.42131  0.41941

  WITH EQUILIBRIUM REACTIONS

 Cp, KJ/(KG)(K)  331.9815 326.7640 321.0831 314.9753 308.4792 301.6356 294.4864 287.0745
 CONDUCTIVITY    238.1328 233.1616 227.9473 222.5189 216.9060 211.1385 205.2459 199.2571
 PRANDTL NUMBER    0.6033   0.6039   0.6043   0.6045   0.6046   0.6046   0.6045   0.6043

  WITH FROZEN REACTIONS

 Cp, KJ/(KG)(K)   19.7261  19.7646  19.8022  19.8388  19.8744  19.9090  19.9424  19.9748
 CONDUCTIVITY     11.8815  11.8616  11.8416  11.8216  11.8018  11.7823  11.7634  11.7451
 PRANDTL NUMBER    0.7185   0.7180   0.7174   0.7167   0.7160   0.7151   0.7142   0.7133

 MOLE FRACTIONS

 *H               0.78400  0.79398  0.80363  0.81294  0.82191  0.83055  0.83885  0.84682
 *H2              0.21600  0.20602  0.19637  0.18706  0.17809  0.16945  0.16115  0.15318

  * THERMODYNAMIC PROPERTIES FITTED TO 20000.K

 NOTE. WEIGHT FRACTION OF FUEL IN TOTAL FUELS AND OF OXIDANT IN TOTAL OXIDANTS









               THERMODYNAMIC EQUILIBRIUM PROPERTIES AT ASSIGNED

                           TEMPERATURE AND PRESSURE

 CASE =                

             REACTANT                    WT FRACTION      ENERGY      TEMP
                                          (SEE NOTE)     KJ/KG-MOL      K  
             H2                           1.0000000         0.000      0.000

 O/F=    0.00000  %FUEL=100.000000  R,EQ.RATIO= 0.000000  PHI,EQ.RATIO= 0.000000

 THERMODYNAMIC PROPERTIES

 P, BAR           0.00165  0.00165  0.00180  0.00180  0.00180  0.00180  0.00180  0.00180
 T, K             2830.00  2840.00  2700.00  2710.00  2720.00  2730.00  2740.00  2750.00
 RHO, KG/CU M    8.0967-6 8.0166-6 1.0381-5 1.0247-5 1.0117-5 9.9900-6 9.8665-6 9.7464-6
 H, KJ/KG        210664.7 213420.2 165147.4 168633.6 172099.2 175538.4 178945.5 182315.0
 U, KJ/KG        190285.9 192837.9 147807.8 151067.9 154307.4 157520.5 160702.0 163846.6
 G, KJ/KG       -338179.6-340123.9-312388.3-314163.4-315951.3-317751.9-319565.1-321390.6
 S, KJ/(KG)(K)   193.9379 194.9099 176.8651 178.1539 179.4303 180.6924 181.9382 183.1657

 M, (1/n)           1.155    1.147    1.295    1.283    1.271    1.260    1.249    1.238
 (dLV/dLP)t      -1.09477 -1.09194 -1.12337 -1.12244 -1.12131 -1.11998 -1.11847 -1.11677
 (dLV/dLT)p        2.8478   2.7866   3.5178   3.4898   3.4580   3.4225   3.3834   3.3411
 Cp, KJ/(KG)(K)  279.4427 271.6336 349.4522 347.6904 345.3389 342.4089 338.9163 334.8813
 GAMMAs            1.1289   1.1302   1.1161   1.1168   1.1175   1.1183   1.1191   1.1199
 SON VEL,M/SEC     4796.5   4823.2   4399.2   4429.2   4459.1   4488.8   4518.4   4547.9

 TRANSPORT PROPERTIES (GASES ONLY)
   CONDUCTIVITY IN UNITS OF MILLIWATTS/(CM)(K)

 VISC,MILLIPOISE  0.41754  0.41570  0.44455  0.44310  0.44156  0.43994  0.43824  0.43649

  WITH EQUILIBRIUM REACTIONS

 Cp, KJ/(KG)(K)  279.4427 271.6336 349.4522 347.6904 345.3389 342.4089 338.9163 334.8813
 CONDUCTIVITY    193.2006 187.1034 260.6726 257.7920 254.5296 250.9035 246.9339 242.6434
 PRANDTL NUMBER    0.6039   0.6035   0.5960   0.5976   0.5991   0.6004   0.6015   0.6024

  WITH FROZEN REACTIONS

 Cp, KJ/(KG)(K)   20.0060  20.0361  19.4773  19.5201  19.5623  19.6038  19.6446  19.6845
 CONDUCTIVITY     11.7276  11.7109  12.0354  12.0207  12.0047  11.9876  11.9695  11.9507
 PRANDTL NUMBER    0.7123   0.7112   0.7194   0.7195   0.7195   0.7194   0.7193   0.7190

 MOLE FRACTIONS

 *H               0.85446  0.86178  0.71552  0.72736  0.73890  0.75014  0.76108  0.77170
 *H2              0.14554  0.13822  0.28448  0.27264  0.26110  0.24986  0.23892  0.22830

  * THERMODYNAMIC PROPERTIES FITTED TO 20000.K

 NOTE. WEIGHT FRACTION OF FUEL IN TOTAL FUELS AND OF OXIDANT IN TOTAL OXIDANTS









               THERMODYNAMIC EQUILIBRIUM PROPERTIES AT ASSIGNED

                           TEMPERATURE AND PRESSURE

 CASE =                

             REACTANT                    WT FRACTION      ENERGY      TEMP
                                          (SEE NOTE)     KJ/KG-MOL      K  
             H2                           1.0000000         0.000      0.000

 O/F=    0.00000  %FUEL=100.000000  R,EQ.RATIO= 0.000000  PHI,EQ.RATIO= 0.000000

 THERMODYNAMIC PROPERTIES

 P, BAR           0.00180  0.00180  0.00180  0.00180  0.00180  0.00180  0.00180  0.00180
 T, K             2760.00  2770.00  2780.00  2790.00  2800.00  2810.00  2820.00  2830.00
 RHO, KG/CU M    9.6297-6 9.5164-6 9.4065-6 9.3001-6 9.1969-6 9.0971-6 9.0006-6 8.9072-6
 H, KJ/KG        185641.4 188919.9 192145.6 195314.2 198421.5 201464.0 204438.3 207341.6
 U, KJ/KG        166949.2 170005.2 173010.0 175959.4 178849.8 181677.5 184439.6 187133.3
 G, KJ/KG       -323228.3-325078.0-326939.4-328812.4-330696.5-332591.7-334497.6-336413.8
 S, KJ/(KG)(K)   184.3731 185.5588 186.7212 187.8590 188.9707 190.0554 191.1120 192.1397

 M, (1/n)           1.228    1.218    1.208    1.199    1.190    1.181    1.172    1.164
 (dLV/dLP)t      -1.11491 -1.11290 -1.11074 -1.10845 -1.10604 -1.10353 -1.10093 -1.09825
 (dLV/dLT)p        3.2957   3.2475   3.1969   3.1439   3.0891   3.0326   2.9747   2.9157
 Cp, KJ/(KG)(K)  330.3282 325.2854 319.7845 313.8602 307.5494 300.8913 293.9262 286.6953
 GAMMAs            1.1208   1.1217   1.1226   1.1236   1.1247   1.1257   1.1268   1.1280
 SON VEL,M/SEC     4577.1   4606.1   4634.9   4663.4   4691.6   4719.6   4747.2   4774.5

 TRANSPORT PROPERTIES (GASES ONLY)
   CONDUCTIVITY IN UNITS OF MILLIWATTS/(CM)(K)

 VISC,MILLIPOISE  0.43469  0.43284  0.43097  0.42907  0.42717  0.42526  0.42335  0.42147

  WITH EQUILIBRIUM REACTIONS

 Cp, KJ/(KG)(K)  330.3282 325.2854 319.7845 313.8602 307.5494 300.8913 293.9262 286.6953
 CONDUCTIVITY    238.0564 233.1989 228.0981 222.7820 217.2794 211.6191 205.8298 199.9400
 PRANDTL NUMBER    0.6032   0.6038   0.6042   0.6045   0.6046   0.6047   0.6046   0.6043

  WITH FROZEN REACTIONS

 Cp, KJ/(KG)(K)   19.7236  19.7619  19.7992  19.8355  19.8708  19.9051  19.9384  19.9706
 CONDUCTIVITY     11.9314  11.9117  11.8918  11.8720  11.8523  11.8329  11.8140  11.7957
 PRANDTL NUMBER    0.7186   0.7181   0.7175   0.7169   0.7162   0.7154   0.7145   0.7136

 MOLE FRACTIONS

 *H               0.78199  0.79196  0.80159  0.81090  0.81987  0.82851  0.83682  0.84480
 *H2              0.21801  0.20804  0.19841  0.18910  0.18013  0.17149  0.16318  0.15520

  * THERMODYNAMIC PROPERTIES FITTED TO 20000.K

 NOTE. WEIGHT FRACTION OF FUEL IN TOTAL FUELS AND OF OXIDANT IN TOTAL OXIDANTS









               THERMODYNAMIC EQUILIBRIUM PROPERTIES AT ASSIGNED

                           TEMPERATURE AND PRESSURE

 CASE =                

             REACTANT                    WT FRACTION      ENERGY      TEMP
                                          (SEE NOTE)     KJ/KG-MOL      K  
             H2                           1.0000000         0.000      0.000

 O/F=    0.00000  %FUEL=100.000000  R,EQ.RATIO= 0.000000  PHI,EQ.RATIO= 0.000000

 THERMODYNAMIC PROPERTIES

 P, BAR           0.00180  0.00200  0.00200  0.00200  0.00200  0.00200  0.00200  0.00200
 T, K             2840.00  2700.00  2710.00  2720.00  2730.00  2740.00  2750.00  2760.00
 RHO, KG/CU M    8.8170-6 1.1686-5 1.1534-5 1.1387-5 1.1242-5 1.1102-5 1.0965-5 1.0832-5
 H, KJ/KG        210171.5 160558.7 164030.8 167490.8 170932.8 174351.3 177740.4 181095.0
 U, KJ/KG        189756.4 143444.0 146691.5 149926.4 153143.0 156336.1 159500.2 162630.4
 G, KJ/KG       -338340.3-310573.2-312324.6-314088.7-315865.6-317655.0-319456.8-321270.9
 S, KJ/(KG)(K)   193.1379 174.4933 175.7769 177.0513 178.3144 179.5643 180.7990 182.0166

 M, (1/n)           1.157    1.312    1.299    1.288    1.276    1.265    1.254    1.243
 (dLV/dLP)t      -1.09551 -1.12432 -1.12369 -1.12285 -1.12181 -1.12057 -1.11915 -1.11755
 (dLV/dLT)p        2.8559   3.5371   3.5151   3.4891   3.4593   3.4258   3.3888   3.3484
 Cp, KJ/(KG)(K)  279.2401 347.6239 346.6994 345.1956 343.1169 340.4724 337.2754 333.5438
 GAMMAs            1.1292   1.1158   1.1165   1.1172   1.1179   1.1186   1.1194   1.1202
 SON VEL,M/SEC     4801.4   4370.0   4399.9   4429.7   4459.5   4489.2   4518.7   4548.0

 TRANSPORT PROPERTIES (GASES ONLY)
   CONDUCTIVITY IN UNITS OF MILLIWATTS/(CM)(K)

 VISC,MILLIPOISE  0.41960  0.44831  0.44702  0.44562  0.44413  0.44256  0.44091  0.43921

  WITH EQUILIBRIUM REACTIONS

 Cp, KJ/(KG)(K)  279.2401 347.6239 346.6994 345.1956 343.1169 340.4724 337.2754 333.5438
 CONDUCTIVITY    193.9773 262.6568 260.3640 257.6793 254.6164 251.1917 247.4241 243.3342
 PRANDTL NUMBER    0.6040   0.5933   0.5952   0.5970   0.5985   0.5999   0.6010   0.6020

  WITH FROZEN REACTIONS

 Cp, KJ/(KG)(K)   20.0017  19.4251  19.4680  19.5104  19.5522  19.5933  19.6338  19.6734
 CONDUCTIVITY     11.7781  12.1090  12.0968  12.0829  12.0676  12.0511  12.0336  12.0153
 PRANDTL NUMBER    0.7126   0.7192   0.7194   0.7195   0.7196   0.7195   0.7194   0.7191

 MOLE FRACTIONS

 *H               0.85246  0.69864  0.71074  0.72257  0.73412  0.74537  0.75633  0.76698
 *H2              0.14754  0.30136  0.28926  0.27743  0.26588  0.25463  0.24367  0.23302

  * THERMODYNAMIC PROPERTIES FITTED TO 20000.K

 NOTE. WEIGHT FRACTION OF FUEL IN TOTAL FUELS AND OF OXIDANT IN TOTAL OXIDANTS









               THERMODYNAMIC EQUILIBRIUM PROPERTIES AT ASSIGNED

                           TEMPERATURE AND PRESSURE

 CASE =                

             REACTANT                    WT FRACTION      ENERGY      TEMP
                                          (SEE NOTE)     KJ/KG-MOL      K  
             H2                           1.0000000         0.000      0.000

 O/F=    0.00000  %FUEL=100.000000  R,EQ.RATIO= 0.000000  PHI,EQ.RATIO= 0.000000

 THERMODYNAMIC PROPERTIES

 P, BAR           0.00200  0.00200  0.00200  0.00200  0.00200  0.00200  0.00200  0.00200
 T, K             2770.00  2780.00  2790.00  2800.00  2810.00  2820.00  2830.00  2840.00
 RHO, KG/CU M    1.0702-5 1.0576-5 1.0454-5 1.0336-5 1.0221-5 1.0110-5 1.0002-5 9.8979-6
 H, KJ/KG        184409.6 187679.3 190899.4 194065.5 197173.3 200219.3 203200.1 206112.6
 U, KJ/KG        165721.5 168768.9 171768.0 174714.8 177605.4 180436.2 183204.1 185906.4
 G, KJ/KG       -323097.1-324935.1-326784.9-328646.1-330518.4-332401.8-334295.8-336200.2
 S, KJ/(KG)(K)   183.2154 184.3937 185.5499 186.6827 187.7907 188.8727 189.9279 190.9552

 M, (1/n)           1.232    1.222    1.213    1.203    1.194    1.185    1.177    1.169
 (dLV/dLP)t      -1.11579 -1.11386 -1.11179 -1.10959 -1.10726 -1.10482 -1.10229 -1.09968
 (dLV/dLT)p        3.3050   3.2588   3.2100   3.1589   3.1058   3.0509   2.9945   2.9370
 Cp, KJ/(KG)(K)  329.2992 324.5674 319.3772 313.7608 307.7526 301.3894 294.7094 287.7517
 GAMMAs            1.1211   1.1220   1.1229   1.1239   1.1249   1.1259   1.1270   1.1282
 SON VEL,M/SEC     4577.2   4606.2   4634.9   4663.4   4691.6   4719.5   4747.2   4774.5

 TRANSPORT PROPERTIES (GASES ONLY)
   CONDUCTIVITY IN UNITS OF MILLIWATTS/(CM)(K)

 VISC,MILLIPOISE  0.43744  0.43564  0.43379  0.43193  0.43004  0.42815  0.42626  0.42439

  WITH EQUILIBRIUM REACTIONS

 Cp, KJ/(KG)(K)  329.2992 324.5674 319.3772 313.7608 307.7526 301.3894 294.7094 287.7517
 CONDUCTIVITY    238.9451 234.2811 229.3679 224.2324 218.9019 213.4043 207.7674 202.0187
 PRANDTL NUMBER    0.6029   0.6035   0.6040   0.6044   0.6046   0.6047   0.6046   0.6045

  WITH FROZEN REACTIONS

 Cp, KJ/(KG)(K)   19.7123  19.7504  19.7875  19.8237  19.8589  19.8932  19.9264  19.9586
 CONDUCTIVITY     11.9964  11.9771  11.9575  11.9378  11.9182  11.8989  11.8799  11.8615
 PRANDTL NUMBER    0.7188   0.7184   0.7179   0.7172   0.7166   0.7158   0.7150   0.7141

 MOLE FRACTIONS

 *H               0.77731  0.78733  0.79702  0.80638  0.81542  0.82414  0.83253  0.84060
 *H2              0.22269  0.21267  0.20298  0.19362  0.18458  0.17586  0.16747  0.15940

  * THERMODYNAMIC PROPERTIES FITTED TO 20000.K

 NOTE. WEIGHT FRACTION OF FUEL IN TOTAL FUELS AND OF OXIDANT IN TOTAL OXIDANTS









               THERMODYNAMIC EQUILIBRIUM PROPERTIES AT ASSIGNED

                           TEMPERATURE AND PRESSURE

 CASE =                

             REACTANT                    WT FRACTION      ENERGY      TEMP
                                          (SEE NOTE)     KJ/KG-MOL      K  
             H2                           1.0000000         0.000      0.000

 O/F=    0.00000  %FUEL=100.000000  R,EQ.RATIO= 0.000000  PHI,EQ.RATIO= 0.000000

 THERMODYNAMIC PROPERTIES

 P, BAR           0.00225  0.00225  0.00225  0.00225  0.00225  0.00225  0.00225  0.00225
 T, K             2700.00  2710.00  2720.00  2730.00  2740.00  2750.00  2760.00  2770.00
 RHO, KG/CU M    1.3341-5 1.3167-5 1.2998-5 1.2832-5 1.2670-5 1.2511-5 1.2357-5 1.2207-5
 H, KJ/KG        155468.3 158911.4 162351.2 165782.4 169199.2 172596.0 175967.5 179308.3
 U, KJ/KG        138603.0 141823.8 145040.5 148247.7 151440.1 154612.4 157759.5 160876.4
 G, KJ/KG       -308572.1-310297.2-312034.9-313785.3-315548.2-317323.5-319111.2-320911.0
 S, KJ/(KG)(K)   171.8668 173.1397 174.4067 175.6658 176.9151 178.1526 179.3763 180.5846

 M, (1/n)           1.331    1.319    1.306    1.294    1.283    1.271    1.260    1.250
 (dLV/dLP)t      -1.12490 -1.12459 -1.12407 -1.12336 -1.12245 -1.12134 -1.12005 -1.11858
 (dLV/dLT)p        3.5488   3.5334   3.5140   3.4907   3.4635   3.4327   3.3983   3.3606
 Cp, KJ/(KG)(K)  344.2779 344.2403 343.6446 342.4886 340.7742 338.5076 335.6992 332.3636
 GAMMAs            1.1156   1.1162   1.1168   1.1175   1.1182   1.1189   1.1197   1.1205
 SON VEL,M/SEC     4337.6   4367.3   4397.0   4426.6   4456.3   4485.8   4515.2   4544.5

 TRANSPORT PROPERTIES (GASES ONLY)
   CONDUCTIVITY IN UNITS OF MILLIWATTS/(CM)(K)

 VISC,MILLIPOISE  0.45226  0.45115  0.44993  0.44861  0.44719  0.44569  0.44411  0.44246

  WITH EQUILIBRIUM REACTIONS

 Cp, KJ/(KG)(K)  344.2779 344.2403 343.6446 342.4886 340.7742 338.5076 335.6992 332.3636
 CONDUCTIVITY    263.8935 262.2548 260.2198 257.7979 255.0008 251.8428 248.3408 244.5135
 PRANDTL NUMBER    0.5900   0.5922   0.5942   0.5960   0.5976   0.5991   0.6003   0.6014

  WITH FROZEN REACTIONS

 Cp, KJ/(KG)(K)   19.3672  19.4100  19.4525  19.4944  19.5359  19.5767  19.6168  19.6563
 CONDUCTIVITY     12.1874  12.1782  12.1672  12.1544  12.1402  12.1246  12.1079  12.0903
 PRANDTL NUMBER    0.7187   0.7191   0.7193   0.7195   0.7196   0.7196   0.7195   0.7193

 MOLE FRACTIONS

 *H               0.67940  0.69175  0.70385  0.71570  0.72728  0.73858  0.74960  0.76031
 *H2              0.32060  0.30825  0.29615  0.28430  0.27272  0.26142  0.25040  0.23969

  * THERMODYNAMIC PROPERTIES FITTED TO 20000.K

 NOTE. WEIGHT FRACTION OF FUEL IN TOTAL FUELS AND OF OXIDANT IN TOTAL OXIDANTS









               THERMODYNAMIC EQUILIBRIUM PROPERTIES AT ASSIGNED

                           TEMPERATURE AND PRESSURE

 CASE =                

             REACTANT                    WT FRACTION      ENERGY      TEMP
                                          (SEE NOTE)     KJ/KG-MOL      K  
             H2                           1.0000000         0.000      0.000

 O/F=    0.00000  %FUEL=100.000000  R,EQ.RATIO= 0.000000  PHI,EQ.RATIO= 0.000000

 THERMODYNAMIC PROPERTIES

 P, BAR           0.00225  0.00225  0.00225  0.00225  0.00225  0.00225  0.00225  0.00250
 T, K             2780.00  2790.00  2800.00  2810.00  2820.00  2830.00  2840.00  2700.00
 RHO, KG/CU M    1.2061-5 1.1919-5 1.1781-5 1.1647-5 1.1517-5 1.1392-5 1.1270-5 1.5020-5
 H, KJ/KG        182613.1 185877.0 189095.3 192263.5 195377.5 198433.3 201427.6 150966.1
 U, KJ/KG        163958.0 166999.7 169997.0 172945.6 175841.8 178681.8 181462.4 134321.4
 G, KJ/KG       -322722.8-324546.4-326381.7-328228.3-330086.2-331955.0-333834.4-306806.9
 S, KJ/(KG)(K)   181.7755 182.9475 184.0989 185.2284 186.3346 187.4163 188.4725 169.5455

 M, (1/n)           1.239    1.229    1.219    1.209    1.200    1.191    1.183    1.349
 (dLV/dLP)t      -1.11694 -1.11514 -1.11318 -1.11109 -1.10887 -1.10654 -1.10410 -1.12499
 (dLV/dLT)p        3.3198   3.2761   3.2298   3.1810   3.1301   3.0773   3.0229   3.5507
 Cp, KJ/(KG)(K)  328.5192 324.1885 319.3971 314.1738 308.5502 302.5601 296.2389 340.2082
 GAMMAs            1.1213   1.1222   1.1231   1.1240   1.1250   1.1260   1.1271   1.1154
 SON VEL,M/SEC     4573.6   4602.6   4631.3   4659.8   4688.0   4716.0   4743.6   4308.8

 TRANSPORT PROPERTIES (GASES ONLY)
   CONDUCTIVITY IN UNITS OF MILLIWATTS/(CM)(K)

 VISC,MILLIPOISE  0.44075  0.43899  0.43719  0.43536  0.43351  0.43164  0.42977  0.45554

  WITH EQUILIBRIUM REACTIONS

 Cp, KJ/(KG)(K)  328.5192 324.1885 319.3971 314.1738 308.5502 302.5601 296.2389 340.2082
 CONDUCTIVITY    240.3817 235.9682 231.2968 226.3926 221.2816 215.9903 210.5455 264.1415
 PRANDTL NUMBER    0.6024   0.6031   0.6037   0.6042   0.6045   0.6046   0.6047   0.5867

  WITH FROZEN REACTIONS

 Cp, KJ/(KG)(K)   19.6950  19.7329  19.7699  19.8061  19.8413  19.8756  19.9089  19.3160
 CONDUCTIVITY     12.0720  12.0531  12.0339  12.0145  11.9950  11.9757  11.9567  12.2536
 PRANDTL NUMBER    0.7191   0.7187   0.7182   0.7177   0.7171   0.7164   0.7156   0.7181

 MOLE FRACTIONS

 *H               0.77073  0.78083  0.79062  0.80009  0.80924  0.81808  0.82659  0.66189
 *H2              0.22927  0.21917  0.20938  0.19991  0.19076  0.18192  0.17341  0.33811

  * THERMODYNAMIC PROPERTIES FITTED TO 20000.K

 NOTE. WEIGHT FRACTION OF FUEL IN TOTAL FUELS AND OF OXIDANT IN TOTAL OXIDANTS









               THERMODYNAMIC EQUILIBRIUM PROPERTIES AT ASSIGNED

                           TEMPERATURE AND PRESSURE

 CASE =                

             REACTANT                    WT FRACTION      ENERGY      TEMP
                                          (SEE NOTE)     KJ/KG-MOL      K  
             H2                           1.0000000         0.000      0.000

 O/F=    0.00000  %FUEL=100.000000  R,EQ.RATIO= 0.000000  PHI,EQ.RATIO= 0.000000

 THERMODYNAMIC PROPERTIES

 P, BAR           0.00250  0.00250  0.00250  0.00250  0.00250  0.00250  0.00250  0.00250
 T, K             2710.00  2720.00  2730.00  2740.00  2750.00  2760.00  2770.00  2780.00
 RHO, KG/CU M    1.4824-5 1.4632-5 1.4445-5 1.4261-5 1.4082-5 1.3906-5 1.3736-5 1.3569-5
 H, KJ/KG        154372.1 157782.5 161191.9 164594.9 167986.1 171360.0 174711.3 178034.8
 U, KJ/KG        137507.8 140697.2 143884.6 147064.7 150232.4 153382.7 156510.4 159610.5
 G, KJ/KG       -308508.6-310222.9-311949.8-313689.1-315440.9-317204.9-318981.2-320769.4
 S, KJ/(KG)(K)   170.8047 172.0608 173.3120 174.5562 175.7916 177.0163 178.2283 179.4260

 M, (1/n)           1.336    1.324    1.312    1.300    1.288    1.276    1.265    1.255
 (dLV/dLP)t      -1.12496 -1.12474 -1.12431 -1.12369 -1.12287 -1.12186 -1.12067 -1.11929
 (dLV/dLT)p        3.5411   3.5274   3.5099   3.4885   3.4633   3.4345   3.4022   3.3665
 Cp, KJ/(KG)(K)  340.9100 341.0801 340.7109 339.7988 338.3440 336.3507 333.8274 330.7862
 GAMMAs            1.1160   1.1166   1.1172   1.1179   1.1186   1.1193   1.1200   1.1208
 SON VEL,M/SEC     4338.2   4367.7   4397.3   4426.8   4456.3   4485.7   4515.0   4544.2

 TRANSPORT PROPERTIES (GASES ONLY)
   CONDUCTIVITY IN UNITS OF MILLIWATTS/(CM)(K)

 VISC,MILLIPOISE  0.45461  0.45356  0.45240  0.45114  0.44978  0.44833  0.44680  0.44520

  WITH EQUILIBRIUM REACTIONS

 Cp, KJ/(KG)(K)  340.9100 341.0801 340.7109 339.7988 338.3440 336.3507 333.8274 330.7862
 CONDUCTIVITY    263.0765 261.6173 259.7694 257.5406 254.9412 251.9841 248.6846 245.0599
 PRANDTL NUMBER    0.5891   0.5913   0.5934   0.5952   0.5969   0.5984   0.5998   0.6009

  WITH FROZEN REACTIONS

 Cp, KJ/(KG)(K)   19.3587  19.4010  19.4430  19.4845  19.5255  19.5660  19.6058  19.6449
 CONDUCTIVITY     12.2475  12.2393  12.2291  12.2172  12.2038  12.1890  12.1729  12.1559
 PRANDTL NUMBER    0.7186   0.7190   0.7193   0.7195   0.7196   0.7197   0.7196   0.7195

 MOLE FRACTIONS

 *H               0.67443  0.68675  0.69883  0.71067  0.72225  0.73356  0.74459  0.75533
 *H2              0.32557  0.31325  0.30117  0.28933  0.27775  0.26644  0.25541  0.24467

  * THERMODYNAMIC PROPERTIES FITTED TO 20000.K

 NOTE. WEIGHT FRACTION OF FUEL IN TOTAL FUELS AND OF OXIDANT IN TOTAL OXIDANTS









               THERMODYNAMIC EQUILIBRIUM PROPERTIES AT ASSIGNED

                           TEMPERATURE AND PRESSURE

 CASE =                

             REACTANT                    WT FRACTION      ENERGY      TEMP
                                          (SEE NOTE)     KJ/KG-MOL      K  
             H2                           1.0000000         0.000      0.000

 O/F=    0.00000  %FUEL=100.000000  R,EQ.RATIO= 0.000000  PHI,EQ.RATIO= 0.000000

 THERMODYNAMIC PROPERTIES

 P, BAR           0.00250  0.00250  0.00250  0.00250  0.00250  0.00250  0.00280  0.00280
 T, K             2790.00  2800.00  2810.00  2820.00  2830.00  2840.00  2700.00  2710.00
 RHO, KG/CU M    1.3407-5 1.3249-5 1.3096-5 1.2947-5 1.2803-5 1.2662-5 1.7062-5 1.6840-5
 H, KJ/KG        181325.4 184578.1 187788.2 190951.4 194063.3 197120.1 146193.6 149549.2
 U, KJ/KG        162678.3 165709.0 168698.3 171641.9 174535.9 177376.7 129782.8 132922.0
 G, KJ/KG       -322569.6-324381.5-326205.0-328039.8-329885.7-331742.5-304933.8-306610.8
 S, KJ/(KG)(K)   180.6075 181.7713 182.9157 184.0394 185.1410 186.2192 167.0842 168.3247

 M, (1/n)           1.244    1.234    1.224    1.214    1.205    1.196    1.368    1.355
 (dLV/dLP)t      -1.11775 -1.11604 -1.11418 -1.11218 -1.11004 -1.10779 -1.12465 -1.12492
 (dLV/dLT)p        3.3277   3.2860   3.2416   3.1947   3.1456   3.0946   3.5439   3.5403
 Cp, KJ/(KG)(K)  327.2434 323.2188 318.7355 313.8200 308.5012 302.8107 334.8027 336.2349
 GAMMAs            1.1216   1.1225   1.1233   1.1243   1.1252   1.1262   1.1153   1.1158
 SON VEL,M/SEC     4573.3   4602.1   4630.8   4659.3   4687.5   4715.4   4278.1   4307.3

 TRANSPORT PROPERTIES (GASES ONLY)
   CONDUCTIVITY IN UNITS OF MILLIWATTS/(CM)(K)

 VISC,MILLIPOISE  0.44354  0.44182  0.44006  0.43826  0.43644  0.43460  0.45879  0.45806

  WITH EQUILIBRIUM REACTIONS

 Cp, KJ/(KG)(K)  327.2434 323.2188 318.7355 313.8200 308.5012 302.8107 334.8027 336.2349
 CONDUCTIVITY    241.1293 236.9139 232.4362 227.7199 222.7896 217.6708 263.5372 263.0688
 PRANDTL NUMBER    0.6019   0.6028   0.6034   0.6040   0.6043   0.6046   0.5829   0.5855

  WITH FROZEN REACTIONS

 Cp, KJ/(KG)(K)   19.6833  19.7210  19.7579  19.7939  19.8290  19.8632  19.2617  19.3041
 CONDUCTIVITY     12.1381  12.1197  12.1008  12.0817  12.0625  12.0433  12.3200  12.3175
 PRANDTL NUMBER    0.7192   0.7189   0.7185   0.7180   0.7174   0.7168   0.7173   0.7179

 MOLE FRACTIONS

 *H               0.76577  0.77592  0.78576  0.79529  0.80451  0.81342  0.64283  0.65552
 *H2              0.23423  0.22408  0.21424  0.20471  0.19549  0.18658  0.35717  0.34448

  * THERMODYNAMIC PROPERTIES FITTED TO 20000.K

 NOTE. WEIGHT FRACTION OF FUEL IN TOTAL FUELS AND OF OXIDANT IN TOTAL OXIDANTS









               THERMODYNAMIC EQUILIBRIUM PROPERTIES AT ASSIGNED

                           TEMPERATURE AND PRESSURE

 CASE =                

             REACTANT                    WT FRACTION      ENERGY      TEMP
                                          (SEE NOTE)     KJ/KG-MOL      K  
             H2                           1.0000000         0.000      0.000

 O/F=    0.00000  %FUEL=100.000000  R,EQ.RATIO= 0.000000  PHI,EQ.RATIO= 0.000000

 THERMODYNAMIC PROPERTIES

 P, BAR           0.00280  0.00280  0.00280  0.00280  0.00280  0.00280  0.00280  0.00280
 T, K             2720.00  2730.00  2740.00  2750.00  2760.00  2770.00  2780.00  2790.00
 RHO, KG/CU M    1.6622-5 1.6408-5 1.6199-5 1.5994-5 1.5793-5 1.5597-5 1.5406-5 1.5220-5
 H, KJ/KG        152916.6 156290.9 159666.8 163039.1 166402.7 169752.2 173082.5 176388.4
 U, KJ/KG        136071.5 139226.2 142381.5 145532.2 148673.5 151800.4 154907.8 157991.0
 G, KJ/KG       -308300.3-310002.1-311716.3-313442.9-315181.6-316932.6-318695.6-320470.5
 S, KJ/(KG)(K)   169.5650 170.8033 172.0376 173.2662 174.4871 175.6985 176.8986 178.0856

 M, (1/n)           1.343    1.330    1.318    1.306    1.294    1.283    1.272    1.261
 (dLV/dLP)t      -1.12500 -1.12488 -1.12456 -1.12405 -1.12335 -1.12246 -1.12138 -1.12012
 (dLV/dLT)p        3.5328   3.5214   3.5061   3.4870   3.4642   3.4378   3.4080   3.3748
 Cp, KJ/(KG)(K)  337.1696 337.5948 337.5015 336.8843 335.7416 334.0755 331.8918 329.2003
 GAMMAs            1.1164   1.1170   1.1176   1.1182   1.1189   1.1196   1.1203   1.1211
 SON VEL,M/SEC     4336.5   4365.8   4395.2   4424.5   4453.9   4483.2   4512.4   4541.5

 TRANSPORT PROPERTIES (GASES ONLY)
   CONDUCTIVITY IN UNITS OF MILLIWATTS/(CM)(K)

 VISC,MILLIPOISE  0.45721  0.45624  0.45515  0.45396  0.45267  0.45129  0.44983  0.44829

  WITH EQUILIBRIUM REACTIONS

 Cp, KJ/(KG)(K)  337.1696 337.5948 337.5015 336.8843 335.7416 334.0755 331.8918 329.2003
 CONDUCTIVITY    262.2143 260.9751 259.3549 257.3602 254.9995 252.2842 249.2276 245.8452
 PRANDTL NUMBER    0.5879   0.5902   0.5923   0.5942   0.5960   0.5976   0.5990   0.6003

  WITH FROZEN REACTIONS

 Cp, KJ/(KG)(K)   19.3462  19.3881  19.4296  19.4706  19.5112  19.5513  19.5908  19.6296
 CONDUCTIVITY     12.3127  12.3057  12.2968  12.2860  12.2736  12.2597  12.2446  12.2283
 PRANDTL NUMBER    0.7184   0.7188   0.7192   0.7194   0.7196   0.7197   0.7197   0.7196

 MOLE FRACTIONS

 *H               0.66803  0.68032  0.69240  0.70424  0.71583  0.72716  0.73823  0.74902
 *H2              0.33197  0.31968  0.30760  0.29576  0.28417  0.27284  0.26177  0.25098

  * THERMODYNAMIC PROPERTIES FITTED TO 20000.K

 NOTE. WEIGHT FRACTION OF FUEL IN TOTAL FUELS AND OF OXIDANT IN TOTAL OXIDANTS









               THERMODYNAMIC EQUILIBRIUM PROPERTIES AT ASSIGNED

                           TEMPERATURE AND PRESSURE

 CASE =                

             REACTANT                    WT FRACTION      ENERGY      TEMP
                                          (SEE NOTE)     KJ/KG-MOL      K  
             H2                           1.0000000         0.000      0.000

 O/F=    0.00000  %FUEL=100.000000  R,EQ.RATIO= 0.000000  PHI,EQ.RATIO= 0.000000

 THERMODYNAMIC PROPERTIES

 P, BAR           0.00280  0.00280  0.00280  0.00280  0.00280  0.00310  0.00310  0.00310
 T, K             2800.00  2810.00  2820.00  2830.00  2840.00  2700.00  2710.00  2720.00
 RHO, KG/CU M    1.5038-5 1.4861-5 1.4689-5 1.4522-5 1.4359-5 1.9131-5 1.8882-5 1.8638-5
 H, KJ/KG        179664.8 182907.1 186110.3 189270.2 192382.5 141981.5 145283.3 148603.2
 U, KJ/KG        161045.2 164065.8 167048.4 169988.7 172882.9 125777.1 128866.0 131970.9
 G, KJ/KG       -322257.2-324055.6-325865.5-327686.6-329518.8-303274.0-304929.2-306596.6
 S, KJ/(KG)(K)   179.2579 180.4138 181.5517 182.6703 183.7681 164.9094 166.1301 167.3529

 M, (1/n)           1.250    1.240    1.230    1.220    1.211    1.385    1.372    1.360
 (dLV/dLP)t      -1.11870 -1.11710 -1.11536 -1.11346 -1.11144 -1.12399 -1.12451 -1.12485
 (dLV/dLT)p        3.3384   3.2991   3.2570   3.2123   3.1654   3.5304   3.5319   3.5297
 Cp, KJ/(KG)(K)  326.0144 322.3510 318.2307 313.6767 308.7155 329.1362 331.1622 332.7255
 GAMMAs            1.1219   1.1227   1.1236   1.1244   1.1254   1.1152   1.1157   1.1162
 SON VEL,M/SEC     4570.4   4599.2   4627.9   4656.3   4684.5   4251.0   4279.8   4308.7

 TRANSPORT PROPERTIES (GASES ONLY)
   CONDUCTIVITY IN UNITS OF MILLIWATTS/(CM)(K)

 VISC,MILLIPOISE  0.44668  0.44501  0.44330  0.44154  0.43975  0.46145  0.46091  0.46024

  WITH EQUILIBRIUM REACTIONS

 Cp, KJ/(KG)(K)  326.0143 322.3510 318.2307 313.6767 308.7155 329.1362 331.1622 332.7255
 CONDUCTIVITY    242.1546 238.1750 233.9274 229.4339 224.7176 262.2619 262.3055 261.9744
 PRANDTL NUMBER    0.6014   0.6023   0.6031   0.6037   0.6041   0.5791   0.5819   0.5845

  WITH FROZEN REACTIONS

 Cp, KJ/(KG)(K)   19.6678  19.7053  19.7420  19.7779  19.8130  19.2137  19.2558  19.2976
 CONDUCTIVITY     12.2112  12.1933  12.1749  12.1562  12.1372  12.3752  12.3762  12.3747
 PRANDTL NUMBER    0.7194   0.7192   0.7188   0.7184   0.7179   0.7164   0.7171   0.7177

 MOLE FRACTIONS

 *H               0.75952  0.76974  0.77965  0.78927  0.79858  0.62554  0.63834  0.65098
 *H2              0.24048  0.23026  0.22035  0.21073  0.20142  0.37446  0.36166  0.34902

  * THERMODYNAMIC PROPERTIES FITTED TO 20000.K

 NOTE. WEIGHT FRACTION OF FUEL IN TOTAL FUELS AND OF OXIDANT IN TOTAL OXIDANTS









               THERMODYNAMIC EQUILIBRIUM PROPERTIES AT ASSIGNED

                           TEMPERATURE AND PRESSURE

 CASE =                

             REACTANT                    WT FRACTION      ENERGY      TEMP
                                          (SEE NOTE)     KJ/KG-MOL      K  
             H2                           1.0000000         0.000      0.000

 O/F=    0.00000  %FUEL=100.000000  R,EQ.RATIO= 0.000000  PHI,EQ.RATIO= 0.000000

 THERMODYNAMIC PROPERTIES

 P, BAR           0.00310  0.00310  0.00310  0.00310  0.00310  0.00310  0.00310  0.00310
 T, K             2730.00  2740.00  2750.00  2760.00  2770.00  2780.00  2790.00  2800.00
 RHO, KG/CU M    1.8399-5 1.8164-5 1.7933-5 1.7707-5 1.7486-5 1.7270-5 1.7059-5 1.6853-5
 H, KJ/KG        151936.2 155277.7 158622.7 161966.0 165302.7 168627.6 171935.6 175221.8
 U, KJ/KG        135087.3 138210.6 141336.1 144458.9 147574.3 150677.5 153763.5 156827.7
 G, KJ/KG       -308276.2-309968.1-311672.2-313388.4-315116.8-316857.1-318609.4-320373.5
 S, KJ/(KG)(K)   168.5760 169.7978 171.0163 172.2299 173.4366 174.6348 175.8226 176.9983

 M, (1/n)           1.347    1.335    1.323    1.311    1.299    1.288    1.277    1.266
 (dLV/dLP)t      -1.12499 -1.12495 -1.12471 -1.12428 -1.12366 -1.12286 -1.12187 -1.12070
 (dLV/dLT)p        3.5236   3.5138   3.5002   3.4828   3.4618   3.4372   3.4092   3.3778
 Cp, KJ/(KG)(K)  333.8106 334.4050 334.4988 334.0858 333.1630 331.7311 329.7942 327.3604
 GAMMAs            1.1168   1.1174   1.1180   1.1186   1.1193   1.1200   1.1207   1.1214
 SON VEL,M/SEC     4337.8   4366.9   4396.1   4425.3   4454.5   4483.7   4512.8   4541.7

 TRANSPORT PROPERTIES (GASES ONLY)
   CONDUCTIVITY IN UNITS OF MILLIWATTS/(CM)(K)

 VISC,MILLIPOISE  0.45945  0.45853  0.45751  0.45637  0.45514  0.45381  0.45240  0.45091

  WITH EQUILIBRIUM REACTIONS

 Cp, KJ/(KG)(K)  333.8106 334.4050 334.4988 334.0858 333.1630 331.7311 329.7942 327.3604
 CONDUCTIVITY    261.2669 260.1835 258.7271 256.9029 254.7185 252.1837 249.3108 246.1139
 PRANDTL NUMBER    0.5870   0.5893   0.5915   0.5935   0.5953   0.5970   0.5984   0.5998

  WITH FROZEN REACTIONS

 Cp, KJ/(KG)(K)   19.3393  19.3806  19.4216  19.4622  19.5024  19.5421  19.5812  19.6198
 CONDUCTIVITY     12.3708  12.3648  12.3567  12.3468  12.3352  12.3221  12.3076  12.2920
 PRANDTL NUMBER    0.7182   0.7187   0.7191   0.7194   0.7196   0.7197   0.7198   0.7197

 MOLE FRACTIONS

 *H               0.66343  0.67568  0.68772  0.69954  0.71112  0.72245  0.73352  0.74432
 *H2              0.33657  0.32432  0.31228  0.30046  0.28888  0.27755  0.26648  0.25568

  * THERMODYNAMIC PROPERTIES FITTED TO 20000.K

 NOTE. WEIGHT FRACTION OF FUEL IN TOTAL FUELS AND OF OXIDANT IN TOTAL OXIDANTS









               THERMODYNAMIC EQUILIBRIUM PROPERTIES AT ASSIGNED

                           TEMPERATURE AND PRESSURE

 CASE =                

             REACTANT                    WT FRACTION      ENERGY      TEMP
                                          (SEE NOTE)     KJ/KG-MOL      K  
             H2                           1.0000000         0.000      0.000

 O/F=    0.00000  %FUEL=100.000000  R,EQ.RATIO= 0.000000  PHI,EQ.RATIO= 0.000000

 THERMODYNAMIC PROPERTIES

 P, BAR           0.00310  0.00310  0.00310  0.00310  0.00350  0.00350  0.00350  0.00350
 T, K             2810.00  2820.00  2830.00  2840.00  2700.00  2710.00  2720.00  2730.00
 RHO, KG/CU M    1.6652-5 1.6457-5 1.6267-5 1.6082-5 2.1925-5 2.1642-5 2.1364-5 2.1090-5
 H, KJ/KG        178481.2 181709.1 184900.7 188051.8 137064.8 140293.5 143546.6 146819.9
 U, KJ/KG        159865.4 162872.0 165843.3 168775.0 121101.4 124121.5 127163.9 130224.4
 G, KJ/KG       -322149.3-323936.7-325735.4-327545.4-301322.1-302951.7-304593.3-306246.9
 S, KJ/(KG)(K)   178.1603 179.3070 180.4368 181.5483 162.3655 163.5591 164.7573 165.9585

 M, (1/n)           1.255    1.245    1.235    1.225    1.406    1.393    1.380    1.368
 (dLV/dLP)t      -1.11936 -1.11786 -1.11620 -1.11439 -1.12279 -1.12359 -1.12421 -1.12466
 (dLV/dLT)p        3.3433   3.3059   3.2656   3.2228   3.5058   3.5131   3.5168   3.5169
 Cp, KJ/(KG)(K)  324.4410 321.0510 317.2086 312.9350 321.5053 324.1587 326.3943 328.1936
 GAMMAs            1.1222   1.1230   1.1238   1.1247   1.1151   1.1156   1.1161   1.1166
 SON VEL,M/SEC     4570.6   4599.3   4627.9   4656.3   4219.1   4247.5   4276.1   4304.7

 TRANSPORT PROPERTIES (GASES ONLY)
   CONDUCTIVITY IN UNITS OF MILLIWATTS/(CM)(K)

 VISC,MILLIPOISE  0.44934  0.44772  0.44604  0.44432  0.46430  0.46399  0.46354  0.46296

  WITH EQUILIBRIUM REACTIONS

 Cp, KJ/(KG)(K)  324.4410 321.0510 317.2086 312.9350 321.5053 324.1587 326.3943 328.1935
 CONDUCTIVITY    242.6092 238.8145 234.7495 230.4348 259.8932 260.5110 260.7724 260.6722
 PRANDTL NUMBER    0.6009   0.6019   0.6027   0.6034   0.5744   0.5773   0.5802   0.5829

  WITH FROZEN REACTIONS

 Cp, KJ/(KG)(K)   19.6576  19.6949  19.7313  19.7670  19.1578  19.1993  19.2407  19.2819
 CONDUCTIVITY     12.2754  12.2581  12.2401  12.2217  12.4351  12.4404  12.4431  12.4433
 PRANDTL NUMBER    0.7196   0.7193   0.7190   0.7186   0.7153   0.7161   0.7168   0.7174

 MOLE FRACTIONS

 *H               0.75484  0.76508  0.77503  0.78469  0.60480  0.61768  0.63043  0.64302
 *H2              0.24516  0.23492  0.22497  0.21531  0.39520  0.38232  0.36957  0.35698

  * THERMODYNAMIC PROPERTIES FITTED TO 20000.K

 NOTE. WEIGHT FRACTION OF FUEL IN TOTAL FUELS AND OF OXIDANT IN TOTAL OXIDANTS









               THERMODYNAMIC EQUILIBRIUM PROPERTIES AT ASSIGNED

                           TEMPERATURE AND PRESSURE

 CASE =                

             REACTANT                    WT FRACTION      ENERGY      TEMP
                                          (SEE NOTE)     KJ/KG-MOL      K  
             H2                           1.0000000         0.000      0.000

 O/F=    0.00000  %FUEL=100.000000  R,EQ.RATIO= 0.000000  PHI,EQ.RATIO= 0.000000

 THERMODYNAMIC PROPERTIES

 P, BAR           0.00350  0.00350  0.00350  0.00350  0.00350  0.00350  0.00350  0.00350
 T, K             2740.00  2750.00  2760.00  2770.00  2780.00  2790.00  2800.00  2810.00
 RHO, KG/CU M    2.0821-5 2.0556-5 2.0297-5 2.0042-5 1.9793-5 1.9549-5 1.9311-5 1.9078-5
 H, KJ/KG        150109.0 153409.2 156715.8 160024.0 163329.0 166625.7 169909.4 173175.1
 U, KJ/KG        133298.8 136382.6 139471.5 142560.8 145645.9 148722.2 151784.9 154829.5
 G, KJ/KG       -307912.5-309590.1-311279.7-312981.3-314694.9-316420.3-318157.6-319906.5
 S, KJ/(KG)(K)   167.1611 168.3634 169.5636 170.7601 171.9510 173.1348 174.3096 175.4739

 M, (1/n)           1.355    1.343    1.331    1.319    1.307    1.296    1.284    1.274
 (dLV/dLP)t      -1.12492 -1.12500 -1.12489 -1.12459 -1.12411 -1.12344 -1.12259 -1.12156
 (dLV/dLT)p        3.5133   3.5060   3.4950   3.4803   3.4621   3.4403   3.4151   3.3866
 Cp, KJ/(KG)(K)  329.5401 330.4203 330.8232 330.7406 330.1676 329.1028 327.5478 325.5078
 GAMMAs            1.1172   1.1177   1.1183   1.1189   1.1196   1.1202   1.1209   1.1217
 SON VEL,M/SEC     4333.6   4362.5   4391.4   4420.4   4449.4   4478.4   4507.4   4536.3

 TRANSPORT PROPERTIES (GASES ONLY)
   CONDUCTIVITY IN UNITS OF MILLIWATTS/(CM)(K)

 VISC,MILLIPOISE  0.46226  0.46145  0.46051  0.45947  0.45832  0.45707  0.45574  0.45432

  WITH EQUILIBRIUM REACTIONS

 Cp, KJ/(KG)(K)  329.5401 330.4203 330.8232 330.7406 330.1676 329.1028 327.5478 325.5078
 CONDUCTIVITY    260.2077 259.3779 258.1842 256.6302 254.7217 252.4668 249.8756 246.9604
 PRANDTL NUMBER    0.5854   0.5878   0.5901   0.5922   0.5941   0.5958   0.5974   0.5988

  WITH FROZEN REACTIONS

 Cp, KJ/(KG)(K)   19.3230  19.3638  19.4043  19.4444  19.4842  19.5235  19.5623  19.6005
 CONDUCTIVITY     12.4411  12.4366  12.4300  12.4215  12.4112  12.3993  12.3860  12.3714
 PRANDTL NUMBER    0.7180   0.7185   0.7189   0.7192   0.7195   0.7197   0.7198   0.7198

 MOLE FRACTIONS

 *H               0.65544  0.66768  0.67972  0.69155  0.70315  0.71451  0.72563  0.73650
 *H2              0.34456  0.33232  0.32028  0.30845  0.29685  0.28549  0.27437  0.26350

  * THERMODYNAMIC PROPERTIES FITTED TO 20000.K

 NOTE. WEIGHT FRACTION OF FUEL IN TOTAL FUELS AND OF OXIDANT IN TOTAL OXIDANTS









               THERMODYNAMIC EQUILIBRIUM PROPERTIES AT ASSIGNED

                           TEMPERATURE AND PRESSURE

 CASE =                

             REACTANT                    WT FRACTION      ENERGY      TEMP
                                          (SEE NOTE)     KJ/KG-MOL      K  
             H2                           1.0000000         0.000      0.000

 O/F=    0.00000  %FUEL=100.000000  R,EQ.RATIO= 0.000000  PHI,EQ.RATIO= 0.000000

 THERMODYNAMIC PROPERTIES

 P, BAR           0.00350  0.00350  0.00350  0.00390  0.00390  0.00390  0.00390  0.00390
 T, K             2820.00  2830.00  2840.00  2700.00  2710.00  2720.00  2730.00  2740.00
 RHO, KG/CU M    1.8851-5 1.8630-5 1.8414-5 2.4756-5 2.4439-5 2.4127-5 2.3819-5 2.3515-5
 H, KJ/KG        176418.0 179633.4 182816.7 132788.7 135944.9 139130.5 142341.9 145574.8
 U, KJ/KG        157851.4 160846.1 163809.3 117034.7 119986.7 122965.8 125968.1 128989.9
 G, KJ/KG       -321667.0-323439.0-325222.2-299606.0-301213.3-302832.3-304463.0-306105.6
 S, KJ/(KG)(K)   176.6259 177.7641 178.8869 160.1462 161.3130 162.4863 163.6648 164.8469

 M, (1/n)           1.263    1.252    1.242    1.425    1.412    1.399    1.386    1.374
 (dLV/dLP)t      -1.12036 -1.11900 -1.11748 -1.12136 -1.12239 -1.12325 -1.12395 -1.12447
 (dLV/dLT)p        3.3549   3.3203   3.2827   3.4767   3.4887   3.4974   3.5026   3.5043
 Cp, KJ/(KG)(K)  322.9915 320.0108 316.5808 314.0164 317.1548 319.9166 322.2817 324.2316
 GAMMAs            1.1224   1.1232   1.1240   1.1151   1.1156   1.1160   1.1165   1.1170
 SON VEL,M/SEC     4565.0   4593.7   4622.2   4191.4   4219.3   4247.4   4275.7   4304.2

 TRANSPORT PROPERTIES (GASES ONLY)
   CONDUCTIVITY IN UNITS OF MILLIWATTS/(CM)(K)

 VISC,MILLIPOISE  0.45283  0.45127  0.44966  0.46655  0.46643  0.46619  0.46581  0.46531

  WITH EQUILIBRIUM REACTIONS

 Cp, KJ/(KG)(K)  322.9915 320.0108 316.5808 314.0164 317.1548 319.9166 322.2817 324.2316
 CONDUCTIVITY    243.7355 240.2169 236.4221 257.0617 258.1539 258.9092 259.3202 259.3812
 PRANDTL NUMBER    0.6001   0.6012   0.6021   0.5699   0.5730   0.5760   0.5789   0.5816

  WITH FROZEN REACTIONS

 Cp, KJ/(KG)(K)   19.6382  19.6752  19.7115  19.1092  19.1501  19.1909  19.2317  19.2724
 CONDUCTIVITY     12.3558  12.3392  12.3219  12.4827  12.4921  12.4987  12.5027  12.5042
 PRANDTL NUMBER    0.7197   0.7196   0.7193   0.7142   0.7150   0.7158   0.7165   0.7172

 MOLE FRACTIONS

 *H               0.74709  0.75742  0.76747  0.58624  0.59916  0.61196  0.62464  0.63717
 *H2              0.25291  0.24258  0.23253  0.41376  0.40084  0.38804  0.37536  0.36283

  * THERMODYNAMIC PROPERTIES FITTED TO 20000.K

 NOTE. WEIGHT FRACTION OF FUEL IN TOTAL FUELS AND OF OXIDANT IN TOTAL OXIDANTS









               THERMODYNAMIC EQUILIBRIUM PROPERTIES AT ASSIGNED

                           TEMPERATURE AND PRESSURE

 CASE =                

             REACTANT                    WT FRACTION      ENERGY      TEMP
                                          (SEE NOTE)     KJ/KG-MOL      K  
             H2                           1.0000000         0.000      0.000

 O/F=    0.00000  %FUEL=100.000000  R,EQ.RATIO= 0.000000  PHI,EQ.RATIO= 0.000000

 THERMODYNAMIC PROPERTIES

 P, BAR           0.00390  0.00390  0.00390  0.00390  0.00390  0.00390  0.00390  0.00390
 T, K             2750.00  2760.00  2770.00  2780.00  2790.00  2800.00  2810.00  2820.00
 RHO, KG/CU M    2.3217-5 2.2924-5 2.2636-5 2.2354-5 2.2078-5 2.1807-5 2.1542-5 2.1283-5
 H, KJ/KG        148825.1 152088.3 155360.0 158635.5 161910.1 165179.1 168437.7 171681.1
 U, KJ/KG        132027.2 135075.6 138131.1 141189.0 144245.1 147294.7 150333.4 153356.6
 G, KJ/KG       -307760.0-309426.2-311104.3-312794.2-314495.9-316209.3-317934.3-319671.0
 S, KJ/(KG)(K)   166.0309 167.2154 168.3987 169.5790 170.7548 171.9244 173.0861 174.2383

 M, (1/n)           1.361    1.349    1.337    1.325    1.313    1.302    1.291    1.280
 (dLV/dLP)t      -1.12482 -1.12498 -1.12497 -1.12477 -1.12438 -1.12382 -1.12307 -1.12215
 (dLV/dLT)p        3.5024   3.4969   3.4878   3.4752   3.4590   3.4393   3.4163   3.3899
 Cp, KJ/(KG)(K)  325.7498 326.8220 327.4365 327.5842 327.2591 326.4580 325.1811 323.4317
 GAMMAs            1.1176   1.1181   1.1187   1.1193   1.1199   1.1206   1.1213   1.1220
 SON VEL,M/SEC     4332.8   4361.4   4390.2   4419.0   4447.9   4476.7   4505.5   4534.3

 TRANSPORT PROPERTIES (GASES ONLY)
   CONDUCTIVITY IN UNITS OF MILLIWATTS/(CM)(K)

 VISC,MILLIPOISE  0.46468  0.46393  0.46307  0.46209  0.46101  0.45984  0.45857  0.45721

  WITH EQUILIBRIUM REACTIONS

 Cp, KJ/(KG)(K)  325.7498 326.8220 327.4365 327.5842 327.2591 326.4580 325.1811 323.4317
 CONDUCTIVITY    259.0886 258.4406 257.4375 256.0819 254.3783 252.3334 249.9561 247.2571
 PRANDTL NUMBER    0.5842   0.5867   0.5890   0.5911   0.5931   0.5949   0.5966   0.5981

  WITH FROZEN REACTIONS

 Cp, KJ/(KG)(K)   19.3129  19.3532  19.3932  19.4329  19.4722  19.5111  19.5495  19.5874
 CONDUCTIVITY     12.5032  12.4999  12.4945  12.4871  12.4779  12.4670  12.4546  12.4409
 PRANDTL NUMBER    0.7178   0.7183   0.7187   0.7191   0.7194   0.7196   0.7198   0.7198

 MOLE FRACTIONS

 *H               0.64955  0.66174  0.67375  0.68556  0.69716  0.70852  0.71966  0.73054
 *H2              0.35045  0.33826  0.32625  0.31444  0.30284  0.29148  0.28034  0.26946

  * THERMODYNAMIC PROPERTIES FITTED TO 20000.K

 NOTE. WEIGHT FRACTION OF FUEL IN TOTAL FUELS AND OF OXIDANT IN TOTAL OXIDANTS









               THERMODYNAMIC EQUILIBRIUM PROPERTIES AT ASSIGNED

                           TEMPERATURE AND PRESSURE

 CASE =                

             REACTANT                    WT FRACTION      ENERGY      TEMP
                                          (SEE NOTE)     KJ/KG-MOL      K  
             H2                           1.0000000         0.000      0.000

 O/F=    0.00000  %FUEL=100.000000  R,EQ.RATIO= 0.000000  PHI,EQ.RATIO= 0.000000

 THERMODYNAMIC PROPERTIES

 P, BAR           0.00390  0.00390  0.00440  0.00440  0.00440  0.00440  0.00440  0.00440
 T, K             2830.00  2840.00  2700.00  2710.00  2720.00  2730.00  2740.00  2750.00
 RHO, KG/CU M    2.1030-5 2.0784-5 2.8338-5 2.7979-5 2.7625-5 2.7275-5 2.6930-5 2.6590-5
 H, KJ/KG        174904.7 178103.9 128152.5 131221.2 134324.2 137458.2 140619.5 143804.2
 U, KJ/KG        156360.0 159339.1 112625.8 115495.4 118396.7 121326.3 124280.9 127256.8
 G, KJ/KG       -321419.0-323178.5-297719.4-299302.4-300896.7-302502.6-304119.9-305748.8
 S, KJ/(KG)(K)   175.3794 176.5079 157.7304 158.8648 160.0077 161.1578 162.3136 163.4738

 M, (1/n)           1.269    1.258    1.446    1.433    1.420    1.407    1.394    1.382
 (dLV/dLP)t      -1.12106 -1.11980 -1.11941 -1.12067 -1.12178 -1.12273 -1.12353 -1.12416
 (dLV/dLT)p        3.3604   3.3279   3.4369   3.4538   3.4675   3.4780   3.4852   3.4891
 Cp, KJ/(KG)(K)  321.2164 318.5448 305.0434 308.6403 311.9071 314.8225 317.3665 319.5203
 GAMMAs            1.1227   1.1235   1.1152   1.1156   1.1160   1.1165   1.1169   1.1174
 SON VEL,M/SEC     4563.0   4591.5   4161.1   4188.5   4216.1   4243.9   4271.9   4300.1

 TRANSPORT PROPERTIES (GASES ONLY)
   CONDUCTIVITY IN UNITS OF MILLIWATTS/(CM)(K)

 VISC,MILLIPOISE  0.45578  0.45427  0.46872  0.46883  0.46880  0.46865  0.46837  0.46796

  WITH EQUILIBRIUM REACTIONS

 Cp, KJ/(KG)(K)  321.2164 318.5448 305.0434 308.6403 311.9071 314.8225 317.3665 319.5203
 CONDUCTIVITY    244.2491 240.9468 253.1805 254.7559 256.0190 256.9601 257.5713 257.8461
 PRANDTL NUMBER    0.5994   0.6006   0.5647   0.5680   0.5711   0.5742   0.5771   0.5799

  WITH FROZEN REACTIONS

 Cp, KJ/(KG)(K)   19.6248  19.6615  19.0564  19.0966  19.1368  19.1770  19.2171  19.2572
 CONDUCTIVITY     12.4260  12.4101  12.5292  12.5432  12.5544  12.5628  12.5686  12.5718
 PRANDTL NUMBER    0.7198   0.7197   0.7129   0.7138   0.7146   0.7154   0.7161   0.7168

 MOLE FRACTIONS

 *H               0.74117  0.75154  0.56555  0.57846  0.59129  0.60402  0.61663  0.62911
 *H2              0.25883  0.24846  0.43445  0.42154  0.40871  0.39598  0.38337  0.37089

  * THERMODYNAMIC PROPERTIES FITTED TO 20000.K

 NOTE. WEIGHT FRACTION OF FUEL IN TOTAL FUELS AND OF OXIDANT IN TOTAL OXIDANTS









               THERMODYNAMIC EQUILIBRIUM PROPERTIES AT ASSIGNED

                           TEMPERATURE AND PRESSURE

 CASE =                

             REACTANT                    WT FRACTION      ENERGY      TEMP
                                          (SEE NOTE)     KJ/KG-MOL      K  
             H2                           1.0000000         0.000      0.000

 O/F=    0.00000  %FUEL=100.000000  R,EQ.RATIO= 0.000000  PHI,EQ.RATIO= 0.000000

 THERMODYNAMIC PROPERTIES

 P, BAR           0.00440  0.00440  0.00440  0.00440  0.00440  0.00440  0.00440  0.00440
 T, K             2760.00  2770.00  2780.00  2790.00  2800.00  2810.00  2820.00  2830.00
 RHO, KG/CU M    2.6256-5 2.5926-5 2.5603-5 2.5285-5 2.4974-5 2.4669-5 2.4370-5 2.4078-5
 H, KJ/KG        147008.5 150228.2 153458.9 156696.3 159935.9 163173.2 166403.6 169622.4
 U, KJ/KG        130250.1 133257.0 136273.4 139295.0 142317.7 145337.1 148348.8 151348.5
 G, KJ/KG       -307389.4-309041.6-310705.4-312380.9-314068.0-315766.6-317476.8-319198.4
 S, KJ/(KG)(K)   164.6369 165.8014 166.9656 168.1280 169.2871 170.4412 171.5888 172.7282

 M, (1/n)           1.369    1.357    1.345    1.333    1.321    1.310    1.299    1.288
 (dLV/dLP)t      -1.12461 -1.12489 -1.12500 -1.12493 -1.12467 -1.12424 -1.12363 -1.12285
 (dLV/dLT)p        3.4894   3.4863   3.4797   3.4697   3.4561   3.4392   3.4189   3.3954
 Cp, KJ/(KG)(K)  321.2672 322.5922 323.4826 323.9281 323.9212 323.4568 322.5331 321.1512
 GAMMAs            1.1180   1.1185   1.1191   1.1197   1.1203   1.1209   1.1216   1.1223
 SON VEL,M/SEC     4328.4   4356.9   4385.4   4414.0   4442.7   4471.3   4500.0   4528.6

 TRANSPORT PROPERTIES (GASES ONLY)
   CONDUCTIVITY IN UNITS OF MILLIWATTS/(CM)(K)

 VISC,MILLIPOISE  0.46743  0.46677  0.46600  0.46512  0.46413  0.46304  0.46185  0.46058

  WITH EQUILIBRIUM REACTIONS

 Cp, KJ/(KG)(K)  321.2672 322.5922 323.4826 323.9281 323.9212 323.4568 322.5331 321.1512
 CONDUCTIVITY    257.7798 257.3695 256.6144 255.5155 254.0758 252.3006 250.1967 247.7733
 PRANDTL NUMBER    0.5825   0.5851   0.5874   0.5897   0.5917   0.5936   0.5954   0.5970

  WITH FROZEN REACTIONS

 Cp, KJ/(KG)(K)   19.2971  19.3368  19.3763  19.4155  19.4543  19.4928  19.5309  19.5684
 CONDUCTIVITY     12.5725  12.5709  12.5671  12.5612  12.5534  12.5439  12.5327  12.5202
 PRANDTL NUMBER    0.7174   0.7180   0.7185   0.7189   0.7193   0.7196   0.7197   0.7199

 MOLE FRACTIONS

 *H               0.64144  0.65361  0.66560  0.67741  0.68902  0.70041  0.71157  0.72251
 *H2              0.35856  0.34639  0.33440  0.32259  0.31098  0.29959  0.28843  0.27749

  * THERMODYNAMIC PROPERTIES FITTED TO 20000.K

 NOTE. WEIGHT FRACTION OF FUEL IN TOTAL FUELS AND OF OXIDANT IN TOTAL OXIDANTS









               THERMODYNAMIC EQUILIBRIUM PROPERTIES AT ASSIGNED

                           TEMPERATURE AND PRESSURE

 CASE =                

             REACTANT                    WT FRACTION      ENERGY      TEMP
                                          (SEE NOTE)     KJ/KG-MOL      K  
             H2                           1.0000000         0.000      0.000

 O/F=    0.00000  %FUEL=100.000000  R,EQ.RATIO= 0.000000  PHI,EQ.RATIO= 0.000000

 THERMODYNAMIC PROPERTIES

 P, BAR           0.00440
 T, K             2840.00
 RHO, KG/CU M    2.3793-5
 H, KJ/KG        172825.1
 U, KJ/KG        154331.9
 G, KJ/KG       -320931.3
 S, KJ/(KG)(K)   173.8579

 M, (1/n)           1.277
 (dLV/dLP)t      -1.12190
 (dLV/dLT)p        3.3686
 Cp, KJ/(KG)(K)  319.3152
 GAMMAs            1.1230
 SON VEL,M/SEC     4557.1

 TRANSPORT PROPERTIES (GASES ONLY)
   CONDUCTIVITY IN UNITS OF MILLIWATTS/(CM)(K)

 VISC,MILLIPOISE  0.45922

  WITH EQUILIBRIUM REACTIONS

 Cp, KJ/(KG)(K)  319.3152
 CONDUCTIVITY    245.0413
 PRANDTL NUMBER    0.5984

  WITH FROZEN REACTIONS

 Cp, KJ/(KG)(K)   19.6055
 CONDUCTIVITY     12.5064
 PRANDTL NUMBER    0.7199

 MOLE FRACTIONS

 *H               0.73320
 *H2              0.26680

  * THERMODYNAMIC PROPERTIES FITTED TO 20000.K

 NOTE. WEIGHT FRACTION OF FUEL IN TOTAL FUELS AND OF OXIDANT IN TOTAL OXIDANTS



  
