
 *******************************************************************************

         NASA-GLENN CHEMICAL EQUILIBRIUM PROGRAM CEA2, MAY 21, 2004
                   BY  BONNIE MCBRIDE AND SANFORD GORDON
      REFS: NASA RP-1311, PART I, 1994 AND NASA RP-1311, PART II, 1996

 *******************************************************************************



  prob tp ions
  p,bar= 0.001,0.0011,0.0012,0.00132,0.00148,0.00165,0.0018,0.002,0.00225,0.0025,
 0.0028,0.0031,0.0035,0.0039,0.0044
  t,k= 7350,7360,7370,7380,7390,7400,7410,7420,7430,7440,7450,7460,7470,7480,7490
  
  reac
  na H2                wt%=100.0000
  
  output short
  output siunits
  output transport
  
 end





               THERMODYNAMIC EQUILIBRIUM PROPERTIES AT ASSIGNED

                           TEMPERATURE AND PRESSURE

 CASE =                

             REACTANT                    WT FRACTION      ENERGY      TEMP
                                          (SEE NOTE)     KJ/KG-MOL      K  
             H2                           1.0000000         0.000      0.000

 O/F=    0.00000  %FUEL=100.000000  R,EQ.RATIO= 0.000000  PHI,EQ.RATIO= 0.000000

 THERMODYNAMIC PROPERTIES

 P, BAR           0.00100  0.00100  0.00100  0.00100  0.00100  0.00100  0.00100  0.00100
 T, K             7350.00  7360.00  7370.00  7380.00  7390.00  7400.00  7410.00  7420.00
 RHO, KG/CU M    1.6059-6 1.6031-6 1.6002-6 1.5973-6 1.5944-6 1.5915-6 1.5887-6 1.5858-6
 H, KJ/KG        400990.1 401846.6 402712.2 403587.0 404471.0 405364.3 406267.1 407179.4
 U, KJ/KG        338720.8 339465.7 340219.2 340981.4 341752.4 342532.3 343321.2 344119.1
 G, KJ/KG       -1382701.-1385128.-1387557.-1389986.-1392417.-1394849.-1397283.-1399717.
 S, KJ/(KG)(K)   242.6790 242.7955 242.9130 243.0316 243.1513 243.2721 243.3941 243.5171

 M, (1/n)           0.981    0.981    0.981    0.980    0.980    0.979    0.979    0.978
 (dLV/dLP)t      -1.01315 -1.01336 -1.01357 -1.01379 -1.01401 -1.01423 -1.01445 -1.01468
 (dLV/dLT)p        1.3152   1.3199   1.3246   1.3293   1.3341   1.3390   1.3439   1.3488
 Cp, KJ/(KG)(K)   85.2060  86.1057  87.0154  87.9350  88.8647  89.8046  90.7546  91.7150
 GAMMAs            1.1888   1.1878   1.1868   1.1858   1.1848   1.1838   1.1829   1.1819
 SON VEL,M/SEC     8604.0   8608.0   8612.0   8616.1   8620.3   8624.5   8628.8   8633.2

 TRANSPORT PROPERTIES (GASES ONLY)
   CONDUCTIVITY IN UNITS OF MILLIWATTS/(CM)(K)

 VISC,MILLIPOISE  0.59287  0.59133  0.58976  0.58817  0.58656  0.58492  0.58326  0.58158

  WITH EQUILIBRIUM REACTIONS

 Cp, KJ/(KG)(K)   85.2060  86.1057  87.0154  87.9350  88.8647  89.8046  90.7546  91.7150
 CONDUCTIVITY     30.9824  31.1093  31.2374  31.3666  31.4971  31.6288  31.7618  31.8960
 PRANDTL NUMBER    1.6305   1.6367   1.6428   1.6489   1.6549   1.6608   1.6666   1.6723

  WITH FROZEN REACTIONS

 Cp, KJ/(KG)(K)   21.1884  21.1977  21.2072  21.2167  21.2264  21.2362  21.2462  21.2562
 CONDUCTIVITY     19.0268  18.9827  18.9378  18.8923  18.8461  18.7992  18.7516  18.7033
 PRANDTL NUMBER    0.6602   0.6603   0.6604   0.6605   0.6606   0.6607   0.6609   0.6610

 MOLE FRACTIONS

 *e-              0.02632  0.02674  0.02717  0.02760  0.02804  0.02848  0.02893  0.02938
 *H               0.94735  0.94651  0.94566  0.94480  0.94393  0.94304  0.94215  0.94124
 *H+              0.02632  0.02674  0.02717  0.02760  0.02804  0.02848  0.02893  0.02938

  * THERMODYNAMIC PROPERTIES FITTED TO 20000.K

 NOTE. WEIGHT FRACTION OF FUEL IN TOTAL FUELS AND OF OXIDANT IN TOTAL OXIDANTS









               THERMODYNAMIC EQUILIBRIUM PROPERTIES AT ASSIGNED

                           TEMPERATURE AND PRESSURE

 CASE =                

             REACTANT                    WT FRACTION      ENERGY      TEMP
                                          (SEE NOTE)     KJ/KG-MOL      K  
             H2                           1.0000000         0.000      0.000

 O/F=    0.00000  %FUEL=100.000000  R,EQ.RATIO= 0.000000  PHI,EQ.RATIO= 0.000000

 THERMODYNAMIC PROPERTIES

 P, BAR           0.00100  0.00100  0.00100  0.00100  0.00100  0.00100  0.00100  0.00110
 T, K             7430.00  7440.00  7450.00  7460.00  7470.00  7480.00  7490.00  7350.00
 RHO, KG/CU M    1.5829-6 1.5800-6 1.5771-6 1.5742-6 1.5713-6 1.5685-6 1.5656-6 1.7687-6
 H, KJ/KG        408101.4 409033.2 409974.8 410926.4 411888.1 412859.9 413842.0 399162.9
 U, KJ/KG        344926.2 345742.6 346568.4 347403.6 348248.5 349103.0 349967.2 336969.9
 G, KJ/KG       -1402153.-1404590.-1407029.-1409468.-1411909.-1414351.-1416795.-1376770.
 S, KJ/(KG)(K)   243.6413 243.7666 243.8931 244.0207 244.1495 244.2795 244.4108 241.6235

 M, (1/n)           0.978    0.977    0.977    0.976    0.976    0.975    0.975    0.983
 (dLV/dLP)t      -1.01491 -1.01514 -1.01537 -1.01561 -1.01585 -1.01609 -1.01634 -1.01256
 (dLV/dLT)p        1.3538   1.3589   1.3640   1.3692   1.3745   1.3797   1.3851   1.3010
 Cp, KJ/(KG)(K)   92.6857  93.6669  94.6585  95.6608  96.6737  97.6974  98.7319  82.2070
 GAMMAs            1.1810   1.1800   1.1791   1.1782   1.1773   1.1765   1.1756   1.1928
 SON VEL,M/SEC     8637.6   8642.1   8646.6   8651.3   8656.0   8660.7   8665.5   8613.1

 TRANSPORT PROPERTIES (GASES ONLY)
   CONDUCTIVITY IN UNITS OF MILLIWATTS/(CM)(K)

 VISC,MILLIPOISE  0.57988  0.57816  0.57641  0.57464  0.57285  0.57104  0.56921  0.59933

  WITH EQUILIBRIUM REACTIONS

 Cp, KJ/(KG)(K)   92.6857  93.6669  94.6585  95.6608  96.6737  97.6974  98.7319  82.2070
 CONDUCTIVITY     32.0314  32.1682  32.3063  32.4456  32.5864  32.7284  32.8718  30.6364
 PRANDTL NUMBER    1.6779   1.6835   1.6889   1.6942   1.6995   1.7046   1.7096   1.6082

  WITH FROZEN REACTIONS

 Cp, KJ/(KG)(K)   21.2665  21.2768  21.2873  21.2979  21.3086  21.3195  21.3305  21.1625
 CONDUCTIVITY     18.6543  18.6047  18.5544  18.5035  18.4518  18.3996  18.3466  19.2220
 PRANDTL NUMBER    0.6611   0.6612   0.6613   0.6614   0.6615   0.6617   0.6618   0.6598

 MOLE FRACTIONS

 *e-              0.02984  0.03030  0.03077  0.03125  0.03173  0.03222  0.03272  0.02513
 *H               0.94032  0.93939  0.93845  0.93750  0.93653  0.93556  0.93457  0.94974
 *H+              0.02984  0.03030  0.03077  0.03125  0.03173  0.03222  0.03272  0.02513

  * THERMODYNAMIC PROPERTIES FITTED TO 20000.K

 NOTE. WEIGHT FRACTION OF FUEL IN TOTAL FUELS AND OF OXIDANT IN TOTAL OXIDANTS









               THERMODYNAMIC EQUILIBRIUM PROPERTIES AT ASSIGNED

                           TEMPERATURE AND PRESSURE

 CASE =                

             REACTANT                    WT FRACTION      ENERGY      TEMP
                                          (SEE NOTE)     KJ/KG-MOL      K  
             H2                           1.0000000         0.000      0.000

 O/F=    0.00000  %FUEL=100.000000  R,EQ.RATIO= 0.000000  PHI,EQ.RATIO= 0.000000

 THERMODYNAMIC PROPERTIES

 P, BAR           0.00110  0.00110  0.00110  0.00110  0.00110  0.00110  0.00110  0.00110
 T, K             7360.00  7370.00  7380.00  7390.00  7400.00  7410.00  7420.00  7430.00
 RHO, KG/CU M    1.7656-6 1.7624-6 1.7593-6 1.7562-6 1.7530-6 1.7499-6 1.7467-6 1.7436-6
 H, KJ/KG        399989.3 400824.3 401668.0 402520.5 403381.9 404252.4 405131.9 406020.7
 U, KJ/KG        337685.9 338410.2 339142.7 339883.7 340633.1 341391.1 342157.8 342933.2
 G, KJ/KG       -1379186.-1381604.-1384023.-1386444.-1388865.-1391288.-1393711.-1396136.
 S, KJ/(KG)(K)   241.7358 241.8492 241.9636 242.0790 242.1955 242.3131 242.4317 242.5514

 M, (1/n)           0.982    0.982    0.981    0.981    0.981    0.980    0.980    0.979
 (dLV/dLP)t      -1.01276 -1.01296 -1.01317 -1.01337 -1.01359 -1.01380 -1.01402 -1.01423
 (dLV/dLT)p        1.3054   1.3099   1.3144   1.3190   1.3237   1.3283   1.3331   1.3379
 Cp, KJ/(KG)(K)   83.0651  83.9328  84.8099  85.6967  86.5932  87.4994  88.4154  89.3414
 GAMMAs            1.1918   1.1907   1.1897   1.1886   1.1876   1.1866   1.1856   1.1847
 SON VEL,M/SEC     8616.9   8620.7   8624.6   8628.6   8632.6   8636.7   8640.9   8645.1

 TRANSPORT PROPERTIES (GASES ONLY)
   CONDUCTIVITY IN UNITS OF MILLIWATTS/(CM)(K)

 VISC,MILLIPOISE  0.59786  0.59636  0.59484  0.59330  0.59174  0.59016  0.58855  0.58692

  WITH EQUILIBRIUM REACTIONS

 Cp, KJ/(KG)(K)   83.0651  83.9328  84.8099  85.6967  86.5932  87.4994  88.4154  89.3414
 CONDUCTIVITY     30.7581  30.8809  31.0048  31.1298  31.2560  31.3834  31.5119  31.6417
 PRANDTL NUMBER    1.6146   1.6209   1.6271   1.6333   1.6394   1.6454   1.6513   1.6572

  WITH FROZEN REACTIONS

 Cp, KJ/(KG)(K)   21.1714  21.1804  21.1895  21.1988  21.2081  21.2176  21.2272  21.2370
 CONDUCTIVITY     19.1802  19.1376  19.0943  19.0504  19.0057  18.9604  18.9144  18.8677
 PRANDTL NUMBER    0.6599   0.6600   0.6601   0.6602   0.6603   0.6604   0.6605   0.6606

 MOLE FRACTIONS

 *e-              0.02553  0.02594  0.02635  0.02677  0.02719  0.02762  0.02805  0.02849
 *H               0.94894  0.94812  0.94730  0.94646  0.94562  0.94476  0.94390  0.94302
 *H+              0.02553  0.02594  0.02635  0.02677  0.02719  0.02762  0.02805  0.02849

  * THERMODYNAMIC PROPERTIES FITTED TO 20000.K

 NOTE. WEIGHT FRACTION OF FUEL IN TOTAL FUELS AND OF OXIDANT IN TOTAL OXIDANTS









               THERMODYNAMIC EQUILIBRIUM PROPERTIES AT ASSIGNED

                           TEMPERATURE AND PRESSURE

 CASE =                

             REACTANT                    WT FRACTION      ENERGY      TEMP
                                          (SEE NOTE)     KJ/KG-MOL      K  
             H2                           1.0000000         0.000      0.000

 O/F=    0.00000  %FUEL=100.000000  R,EQ.RATIO= 0.000000  PHI,EQ.RATIO= 0.000000

 THERMODYNAMIC PROPERTIES

 P, BAR           0.00110  0.00110  0.00110  0.00110  0.00110  0.00110  0.00120  0.00120
 T, K             7440.00  7450.00  7460.00  7470.00  7480.00  7490.00  7350.00  7360.00
 RHO, KG/CU M    1.7405-6 1.7373-6 1.7342-6 1.7310-6 1.7279-6 1.7247-6 1.9315-6 1.9282-6
 H, KJ/KG        406918.8 407826.3 408743.3 409669.9 410606.2 411552.4 397569.0 398369.0
 U, KJ/KG        343717.4 344510.6 345312.8 346124.2 346944.8 347774.7 335442.5 336133.4
 G, KJ/KG       -1398562.-1400990.-1403418.-1405848.-1408279.-1410711.-1371361.-1373768.
 S, KJ/(KG)(K)   242.6722 242.7941 242.9171 243.0412 243.1665 243.2929 240.6708 240.7795

 M, (1/n)           0.979    0.978    0.978    0.977    0.977    0.976    0.984    0.983
 (dLV/dLP)t      -1.01446 -1.01468 -1.01491 -1.01514 -1.01537 -1.01561 -1.01204 -1.01223
 (dLV/dLT)p        1.3427   1.3476   1.3526   1.3576   1.3627   1.3678   1.2885   1.2928
 Cp, KJ/(KG)(K)   90.2773  91.2233  92.1793  93.1456  94.1221  95.1090  79.5904  80.4123
 GAMMAs            1.1837   1.1828   1.1818   1.1809   1.1800   1.1791   1.1966   1.1955
 SON VEL,M/SEC     8649.4   8653.7   8658.2   8662.6   8667.2   8671.8   8622.0   8625.6

 TRANSPORT PROPERTIES (GASES ONLY)
   CONDUCTIVITY IN UNITS OF MILLIWATTS/(CM)(K)

 VISC,MILLIPOISE  0.58527  0.58359  0.58190  0.58018  0.57844  0.57668  0.60506  0.60366

  WITH EQUILIBRIUM REACTIONS

 Cp, KJ/(KG)(K)   90.2773  91.2233  92.1793  93.1456  94.1221  95.1090  79.5904  80.4123
 CONDUCTIVITY     31.7726  31.9048  32.0382  32.1729  32.3088  32.4460  30.3363  30.4534
 PRANDTL NUMBER    1.6630   1.6686   1.6742   1.6797   1.6851   1.6904   1.5875   1.5940

  WITH FROZEN REACTIONS

 Cp, KJ/(KG)(K)   21.2468  21.2568  21.2670  21.2772  21.2876  21.2981  21.1399  21.1484
 CONDUCTIVITY     18.8203  18.7723  18.7236  18.6742  18.6241  18.5735  19.3952  19.3554
 PRANDTL NUMBER    0.6607   0.6608   0.6609   0.6611   0.6612   0.6613   0.6595   0.6596

 MOLE FRACTIONS

 *e-              0.02894  0.02939  0.02984  0.03030  0.03077  0.03124  0.02409  0.02447
 *H               0.94213  0.94123  0.94032  0.93939  0.93846  0.93751  0.95183  0.95106
 *H+              0.02894  0.02939  0.02984  0.03030  0.03077  0.03124  0.02409  0.02447

  * THERMODYNAMIC PROPERTIES FITTED TO 20000.K

 NOTE. WEIGHT FRACTION OF FUEL IN TOTAL FUELS AND OF OXIDANT IN TOTAL OXIDANTS









               THERMODYNAMIC EQUILIBRIUM PROPERTIES AT ASSIGNED

                           TEMPERATURE AND PRESSURE

 CASE =                

             REACTANT                    WT FRACTION      ENERGY      TEMP
                                          (SEE NOTE)     KJ/KG-MOL      K  
             H2                           1.0000000         0.000      0.000

 O/F=    0.00000  %FUEL=100.000000  R,EQ.RATIO= 0.000000  PHI,EQ.RATIO= 0.000000

 THERMODYNAMIC PROPERTIES

 P, BAR           0.00120  0.00120  0.00120  0.00120  0.00120  0.00120  0.00120  0.00120
 T, K             7370.00  7380.00  7390.00  7400.00  7410.00  7420.00  7430.00  7440.00
 RHO, KG/CU M    1.9248-6 1.9214-6 1.9180-6 1.9146-6 1.9112-6 1.9078-6 1.9044-6 1.9010-6
 H, KJ/KG        399177.3 399993.9 400819.0 401652.6 402494.9 403345.8 404205.6 405074.3
 U, KJ/KG        336832.1 337538.8 338253.5 338976.4 339707.4 340446.8 341194.5 341950.7
 G, KJ/KG       -1376177.-1378586.-1380997.-1383408.-1385821.-1388235.-1390650.-1393066.
 S, KJ/(KG)(K)   240.8893 241.0000 241.1117 241.2244 241.3382 241.4529 241.5687 241.6856

 M, (1/n)           0.983    0.982    0.982    0.982    0.981    0.981    0.980    0.980
 (dLV/dLP)t      -1.01242 -1.01262 -1.01282 -1.01302 -1.01323 -1.01344 -1.01365 -1.01386
 (dLV/dLT)p        1.2971   1.3014   1.3058   1.3103   1.3148   1.3193   1.3239   1.3286
 Cp, KJ/(KG)(K)   81.2432  82.0833  82.9326  83.7912  84.6591  85.5365  86.4233  87.3197
 GAMMAs            1.1944   1.1933   1.1923   1.1912   1.1902   1.1892   1.1881   1.1872
 SON VEL,M/SEC     8629.3   8633.0   8636.8   8640.6   8644.5   8648.5   8652.5   8656.6

 TRANSPORT PROPERTIES (GASES ONLY)
   CONDUCTIVITY IN UNITS OF MILLIWATTS/(CM)(K)

 VISC,MILLIPOISE  0.60223  0.60078  0.59930  0.59781  0.59629  0.59475  0.59318  0.59160

  WITH EQUILIBRIUM REACTIONS

 Cp, KJ/(KG)(K)   81.2432  82.0833  82.9326  83.7912  84.6591  85.5365  86.4233  87.3197
 CONDUCTIVITY     30.5717  30.6910  30.8113  30.9328  31.0553  31.1790  31.3037  31.4297
 PRANDTL NUMBER    1.6004   1.6068   1.6131   1.6193   1.6255   1.6316   1.6377   1.6436

  WITH FROZEN REACTIONS

 Cp, KJ/(KG)(K)   21.1570  21.1658  21.1746  21.1836  21.1927  21.2019  21.2113  21.2207
 CONDUCTIVITY     19.3148  19.2737  19.2318  19.1892  19.1459  19.1020  19.0573  19.0120
 PRANDTL NUMBER    0.6597   0.6598   0.6598   0.6599   0.6600   0.6601   0.6602   0.6603

 MOLE FRACTIONS

 *e-              0.02486  0.02526  0.02566  0.02606  0.02647  0.02689  0.02731  0.02774
 *H               0.95028  0.94948  0.94868  0.94787  0.94705  0.94622  0.94537  0.94452
 *H+              0.02486  0.02526  0.02566  0.02606  0.02647  0.02689  0.02731  0.02774

  * THERMODYNAMIC PROPERTIES FITTED TO 20000.K

 NOTE. WEIGHT FRACTION OF FUEL IN TOTAL FUELS AND OF OXIDANT IN TOTAL OXIDANTS









               THERMODYNAMIC EQUILIBRIUM PROPERTIES AT ASSIGNED

                           TEMPERATURE AND PRESSURE

 CASE =                

             REACTANT                    WT FRACTION      ENERGY      TEMP
                                          (SEE NOTE)     KJ/KG-MOL      K  
             H2                           1.0000000         0.000      0.000

 O/F=    0.00000  %FUEL=100.000000  R,EQ.RATIO= 0.000000  PHI,EQ.RATIO= 0.000000

 THERMODYNAMIC PROPERTIES

 P, BAR           0.00120  0.00120  0.00120  0.00120  0.00120  0.00132  0.00132  0.00132
 T, K             7450.00  7460.00  7470.00  7480.00  7490.00  7350.00  7360.00  7370.00
 RHO, KG/CU M    1.8976-6 1.8942-6 1.8908-6 1.8874-6 1.8840-6 2.1271-6 2.1234-6 2.1197-6
 H, KJ/KG        405952.0 406838.9 407734.9 408640.3 409555.0 395900.8 396673.2 397453.5
 U, KJ/KG        342715.5 343488.9 344271.1 345062.1 345862.1 333843.8 334508.3 335180.4
 G, KJ/KG       -1395484.-1397902.-1400322.-1402743.-1405166.-1365443.-1367840.-1370238.
 S, KJ/(KG)(K)   241.8035 241.9224 242.0425 242.1636 242.2858 239.6386 239.7436 239.8496

 M, (1/n)           0.980    0.979    0.979    0.978    0.978    0.985    0.984    0.984
 (dLV/dLP)t      -1.01407 -1.01429 -1.01451 -1.01474 -1.01496 -1.01149 -1.01167 -1.01186
 (dLV/dLT)p        1.3333   1.3381   1.3429   1.3477   1.3527   1.2754   1.2795   1.2836
 Cp, KJ/(KG)(K)   88.2258  89.1415  90.0670  91.0023  91.9476  76.8513  77.6352  78.4277
 GAMMAs            1.1862   1.1852   1.1843   1.1833   1.1824   1.2008   1.1997   1.1985
 SON VEL,M/SEC     8660.8   8665.0   8669.3   8673.7   8678.1   8632.4   8635.8   8639.2

 TRANSPORT PROPERTIES (GASES ONLY)
   CONDUCTIVITY IN UNITS OF MILLIWATTS/(CM)(K)

 VISC,MILLIPOISE  0.58999  0.58836  0.58671  0.58504  0.58335  0.61117  0.60984  0.60848

  WITH EQUILIBRIUM REACTIONS

 Cp, KJ/(KG)(K)   88.2258  89.1415  90.0670  91.0023  91.9476  76.8513  77.6352  78.4277
 CONDUCTIVITY     31.5567  31.6850  31.8144  31.9451  32.0769  30.0239  30.1364  30.2499
 PRANDTL NUMBER    1.6495   1.6553   1.6610   1.6666   1.6721   1.5644   1.5710   1.5776

  WITH FROZEN REACTIONS

 Cp, KJ/(KG)(K)   21.2303  21.2400  21.2498  21.2597  21.2698  21.1162  21.1243  21.1326
 CONDUCTIVITY     18.9661  18.9194  18.8721  18.8241  18.7755  19.5793  19.5417  19.5035
 PRANDTL NUMBER    0.6604   0.6605   0.6606   0.6607   0.6608   0.6591   0.6592   0.6593

 MOLE FRACTIONS

 *e-              0.02817  0.02861  0.02905  0.02950  0.02995  0.02299  0.02336  0.02373
 *H               0.94366  0.94278  0.94190  0.94100  0.94009  0.95402  0.95328  0.95253
 *H+              0.02817  0.02861  0.02905  0.02950  0.02995  0.02299  0.02336  0.02373

  * THERMODYNAMIC PROPERTIES FITTED TO 20000.K

 NOTE. WEIGHT FRACTION OF FUEL IN TOTAL FUELS AND OF OXIDANT IN TOTAL OXIDANTS









               THERMODYNAMIC EQUILIBRIUM PROPERTIES AT ASSIGNED

                           TEMPERATURE AND PRESSURE

 CASE =                

             REACTANT                    WT FRACTION      ENERGY      TEMP
                                          (SEE NOTE)     KJ/KG-MOL      K  
             H2                           1.0000000         0.000      0.000

 O/F=    0.00000  %FUEL=100.000000  R,EQ.RATIO= 0.000000  PHI,EQ.RATIO= 0.000000

 THERMODYNAMIC PROPERTIES

 P, BAR           0.00132  0.00132  0.00132  0.00132  0.00132  0.00132  0.00132  0.00132
 T, K             7380.00  7390.00  7400.00  7410.00  7420.00  7430.00  7440.00  7450.00
 RHO, KG/CU M    2.1160-6 2.1123-6 2.1086-6 2.1049-6 2.1012-6 2.0975-6 2.0938-6 2.0901-6
 H, KJ/KG        398241.8 399038.1 399842.6 400655.3 401476.3 402305.8 403143.7 403990.3
 U, KJ/KG        335860.0 336547.3 337242.3 337945.2 338655.9 339374.7 340101.5 340836.6
 G, KJ/KG       -1372637.-1375037.-1377438.-1379841.-1382244.-1384648.-1387054.-1389461.
 S, KJ/(KG)(K)   239.9565 240.0643 240.1731 240.2828 240.3936 240.5053 240.6180 240.7317

 M, (1/n)           0.984    0.983    0.983    0.982    0.982    0.982    0.981    0.981
 (dLV/dLP)t      -1.01205 -1.01224 -1.01243 -1.01263 -1.01283 -1.01303 -1.01323 -1.01344
 (dLV/dLT)p        1.2877   1.2920   1.2962   1.3005   1.3049   1.3093   1.3137   1.3182
 Cp, KJ/(KG)(K)   79.2289  80.0389  80.8578  81.6856  82.5225  83.3683  84.2233  85.0875
 GAMMAs            1.1974   1.1963   1.1952   1.1942   1.1931   1.1921   1.1910   1.1900
 SON VEL,M/SEC     8642.8   8646.3   8650.0   8653.7   8657.5   8661.3   8665.2   8669.2

 TRANSPORT PROPERTIES (GASES ONLY)
   CONDUCTIVITY IN UNITS OF MILLIWATTS/(CM)(K)

 VISC,MILLIPOISE  0.60710  0.60570  0.60427  0.60283  0.60136  0.59987  0.59836  0.59682

  WITH EQUILIBRIUM REACTIONS

 Cp, KJ/(KG)(K)   79.2289  80.0389  80.8578  81.6856  82.5225  83.3683  84.2233  85.0875
 CONDUCTIVITY     30.3644  30.4799  30.5964  30.7139  30.8325  30.9522  31.0729  31.1947
 PRANDTL NUMBER    1.5841   1.5905   1.5969   1.6033   1.6095   1.6157   1.6218   1.6279

  WITH FROZEN REACTIONS

 Cp, KJ/(KG)(K)   21.1409  21.1494  21.1580  21.1666  21.1754  21.1843  21.1934  21.2025
 CONDUCTIVITY     19.4645  19.4249  19.3846  19.3436  19.3019  19.2595  19.2165  19.1727
 PRANDTL NUMBER    0.6594   0.6595   0.6596   0.6596   0.6597   0.6598   0.6599   0.6600

 MOLE FRACTIONS

 *e-              0.02411  0.02449  0.02488  0.02527  0.02567  0.02608  0.02648  0.02690
 *H               0.95178  0.95101  0.95024  0.94945  0.94865  0.94785  0.94703  0.94621
 *H+              0.02411  0.02449  0.02488  0.02527  0.02567  0.02608  0.02648  0.02690

  * THERMODYNAMIC PROPERTIES FITTED TO 20000.K

 NOTE. WEIGHT FRACTION OF FUEL IN TOTAL FUELS AND OF OXIDANT IN TOTAL OXIDANTS









               THERMODYNAMIC EQUILIBRIUM PROPERTIES AT ASSIGNED

                           TEMPERATURE AND PRESSURE

 CASE =                

             REACTANT                    WT FRACTION      ENERGY      TEMP
                                          (SEE NOTE)     KJ/KG-MOL      K  
             H2                           1.0000000         0.000      0.000

 O/F=    0.00000  %FUEL=100.000000  R,EQ.RATIO= 0.000000  PHI,EQ.RATIO= 0.000000

 THERMODYNAMIC PROPERTIES

 P, BAR           0.00132  0.00132  0.00132  0.00132  0.00148  0.00148  0.00148  0.00148
 T, K             7460.00  7470.00  7480.00  7490.00  7350.00  7360.00  7370.00  7380.00
 RHO, KG/CU M    2.0864-6 2.0827-6 2.0790-6 2.0753-6 2.3880-6 2.3839-6 2.3798-6 2.3757-6
 H, KJ/KG        404845.5 405709.5 406582.4 407464.3 394000.2 394741.2 395489.6 396245.6
 U, KJ/KG        341579.8 342331.4 343091.5 343860.1 332022.5 332657.1 333298.7 333947.4
 G, KJ/KG       -1391869.-1394278.-1396688.-1399099.-1358348.-1360732.-1363118.-1365505.
 S, KJ/(KG)(K)   240.8464 240.9621 241.0789 241.1967 238.4147 238.5154 238.6170 238.7196

 M, (1/n)           0.980    0.980    0.980    0.979    0.986    0.986    0.985    0.985
 (dLV/dLP)t      -1.01365 -1.01386 -1.01407 -1.01429 -1.01087 -1.01104 -1.01122 -1.01140
 (dLV/dLT)p        1.3228   1.3274   1.3320   1.3368   1.2604   1.2643   1.2682   1.2721
 Cp, KJ/(KG)(K)   85.9610  86.8438  87.7360  88.6376  73.7303  74.4708  75.2195  75.9764
 GAMMAs            1.1890   1.1880   1.1871   1.1861   1.2060   1.2048   1.2037   1.2025
 SON VEL,M/SEC     8673.2   8677.3   8681.5   8685.7   8645.6   8648.8   8652.0   8655.3

 TRANSPORT PROPERTIES (GASES ONLY)
   CONDUCTIVITY IN UNITS OF MILLIWATTS/(CM)(K)

 VISC,MILLIPOISE  0.59527  0.59369  0.59209  0.59047  0.61826  0.61701  0.61574  0.61445

  WITH EQUILIBRIUM REACTIONS

 Cp, KJ/(KG)(K)   85.9610  86.8438  87.7360  88.6376  73.7303  74.4708  75.2195  75.9764
 CONDUCTIVITY     31.3176  31.4416  31.5667  31.6930  29.6702  29.7775  29.8857  29.9947
 PRANDTL NUMBER    1.6339   1.6398   1.6456   1.6514   1.5364   1.5431   1.5498   1.5564

  WITH FROZEN REACTIONS

 Cp, KJ/(KG)(K)   21.2118  21.2211  21.2306  21.2402  21.0892  21.0969  21.1047  21.1126
 CONDUCTIVITY     19.1283  19.0833  19.0375  18.9911  19.7927  19.7578  19.7222  19.6860
 PRANDTL NUMBER    0.6601   0.6602   0.6603   0.6604   0.6588   0.6588   0.6589   0.6590

 MOLE FRACTIONS

 *e-              0.02731  0.02774  0.02817  0.02860  0.02174  0.02209  0.02244  0.02280
 *H               0.94537  0.94452  0.94367  0.94280  0.95652  0.95582  0.95511  0.95440
 *H+              0.02731  0.02774  0.02817  0.02860  0.02174  0.02209  0.02244  0.02280

  * THERMODYNAMIC PROPERTIES FITTED TO 20000.K

 NOTE. WEIGHT FRACTION OF FUEL IN TOTAL FUELS AND OF OXIDANT IN TOTAL OXIDANTS









               THERMODYNAMIC EQUILIBRIUM PROPERTIES AT ASSIGNED

                           TEMPERATURE AND PRESSURE

 CASE =                

             REACTANT                    WT FRACTION      ENERGY      TEMP
                                          (SEE NOTE)     KJ/KG-MOL      K  
             H2                           1.0000000         0.000      0.000

 O/F=    0.00000  %FUEL=100.000000  R,EQ.RATIO= 0.000000  PHI,EQ.RATIO= 0.000000

 THERMODYNAMIC PROPERTIES

 P, BAR           0.00148  0.00148  0.00148  0.00148  0.00148  0.00148  0.00148  0.00148
 T, K             7390.00  7400.00  7410.00  7420.00  7430.00  7440.00  7450.00  7460.00
 RHO, KG/CU M    2.3716-6 2.3675-6 2.3634-6 2.3593-6 2.3552-6 2.3511-6 2.3470-6 2.3429-6
 H, KJ/KG        397009.2 397780.5 398559.5 399346.5 400141.3 400944.2 401755.2 402574.5
 U, KJ/KG        334603.5 335266.8 335937.5 336615.7 337301.4 337994.8 338695.9 339404.8
 G, KJ/KG       -1367892.-1370281.-1372671.-1375062.-1377454.-1379847.-1382241.-1384636.
 S, KJ/(KG)(K)   238.8229 238.9272 239.0325 239.1386 239.2456 239.3536 239.4626 239.5724

 M, (1/n)           0.985    0.984    0.984    0.983    0.983    0.983    0.982    0.982
 (dLV/dLP)t      -1.01158 -1.01176 -1.01195 -1.01213 -1.01232 -1.01252 -1.01271 -1.01291
 (dLV/dLT)p        1.2761   1.2802   1.2842   1.2884   1.2925   1.2968   1.3010   1.3053
 Cp, KJ/(KG)(K)   76.7417  77.5153  78.2974  79.0880  79.8872  80.6950  81.5114  82.3367
 GAMMAs            1.2014   1.2003   1.1991   1.1980   1.1970   1.1959   1.1948   1.1938
 SON VEL,M/SEC     8658.7   8662.1   8665.6   8669.1   8672.8   8676.4   8680.2   8683.9

 TRANSPORT PROPERTIES (GASES ONLY)
   CONDUCTIVITY IN UNITS OF MILLIWATTS/(CM)(K)

 VISC,MILLIPOISE  0.61313  0.61179  0.61043  0.60905  0.60765  0.60622  0.60477  0.60330

  WITH EQUILIBRIUM REACTIONS

 Cp, KJ/(KG)(K)   76.7417  77.5153  78.2974  79.0880  79.8872  80.6950  81.5114  82.3367
 CONDUCTIVITY     30.1048  30.2157  30.3276  30.4405  30.5544  30.6692  30.7851  30.9019
 PRANDTL NUMBER    1.5630   1.5695   1.5760   1.5824   1.5887   1.5951   1.6013   1.6075

  WITH FROZEN REACTIONS

 Cp, KJ/(KG)(K)   21.1206  21.1287  21.1369  21.1453  21.1537  21.1622  21.1708  21.1796
 CONDUCTIVITY     19.6490  19.6114  19.5731  19.5341  19.4944  19.4541  19.4130  19.3714
 PRANDTL NUMBER    0.6591   0.6591   0.6592   0.6593   0.6594   0.6594   0.6595   0.6596

 MOLE FRACTIONS

 *e-              0.02316  0.02353  0.02390  0.02428  0.02466  0.02505  0.02544  0.02584
 *H               0.95367  0.95294  0.95219  0.95144  0.95067  0.94990  0.94912  0.94833
 *H+              0.02316  0.02353  0.02390  0.02428  0.02466  0.02505  0.02544  0.02584

  * THERMODYNAMIC PROPERTIES FITTED TO 20000.K

 NOTE. WEIGHT FRACTION OF FUEL IN TOTAL FUELS AND OF OXIDANT IN TOTAL OXIDANTS









               THERMODYNAMIC EQUILIBRIUM PROPERTIES AT ASSIGNED

                           TEMPERATURE AND PRESSURE

 CASE =                

             REACTANT                    WT FRACTION      ENERGY      TEMP
                                          (SEE NOTE)     KJ/KG-MOL      K  
             H2                           1.0000000         0.000      0.000

 O/F=    0.00000  %FUEL=100.000000  R,EQ.RATIO= 0.000000  PHI,EQ.RATIO= 0.000000

 THERMODYNAMIC PROPERTIES

 P, BAR           0.00148  0.00148  0.00148  0.00165  0.00165  0.00165  0.00165  0.00165
 T, K             7470.00  7480.00  7490.00  7350.00  7360.00  7370.00  7380.00  7390.00
 RHO, KG/CU M    2.3388-6 2.3347-6 2.3306-6 2.6653-6 2.6608-6 2.6563-6 2.6518-6 2.6472-6
 H, KJ/KG        403402.0 404237.9 405082.3 392291.8 393004.6 393724.4 394451.3 395185.4
 U, KJ/KG        340121.6 340846.4 341579.2 330385.4 330993.0 331607.2 332228.3 332856.2
 G, KJ/KG       -1387032.-1389430.-1391828.-1351613.-1353986.-1356360.-1358735.-1361111.
 S, KJ/(KG)(K)   239.6833 239.7951 239.9079 237.2659 237.3628 237.4605 237.5591 237.6585

 M, (1/n)           0.981    0.981    0.981    0.987    0.987    0.986    0.986    0.986
 (dLV/dLP)t      -1.01311 -1.01331 -1.01352 -1.01030 -1.01047 -1.01064 -1.01081 -1.01098
 (dLV/dLT)p        1.3097   1.3141   1.3186   1.2470   1.2506   1.2543   1.2581   1.2619
 Cp, KJ/(KG)(K)   83.1708  84.0137  84.8657  70.9244  71.6259  72.3352  73.0523  73.7773
 GAMMAs            1.1928   1.1917   1.1907   1.2112   1.2099   1.2087   1.2075   1.2064
 SON VEL,M/SEC     8687.8   8691.7   8695.7   8659.1   8662.0   8665.0   8668.1   8671.3

 TRANSPORT PROPERTIES (GASES ONLY)
   CONDUCTIVITY IN UNITS OF MILLIWATTS/(CM)(K)

 VISC,MILLIPOISE  0.60181  0.60030  0.59877  0.62476  0.62359  0.62240  0.62119  0.61995

  WITH EQUILIBRIUM REACTIONS

 Cp, KJ/(KG)(K)   83.1708  84.0137  84.8657  70.9244  71.6259  72.3352  73.0523  73.7773
 CONDUCTIVITY     31.0198  31.1388  31.2587  29.3544  29.4570  29.5605  29.6648  29.7699
 PRANDTL NUMBER    1.6136   1.6196   1.6256   1.5095   1.5163   1.5230   1.5297   1.5364

  WITH FROZEN REACTIONS

 Cp, KJ/(KG)(K)   21.1885  21.1974  21.2065  21.0650  21.0723  21.0797  21.0872  21.0948
 CONDUCTIVITY     19.3290  19.2859  19.2422  19.9880  19.9556  19.9225  19.8888  19.8543
 PRANDTL NUMBER    0.6597   0.6598   0.6599   0.6584   0.6585   0.6585   0.6586   0.6587

 MOLE FRACTIONS

 *e-              0.02624  0.02664  0.02705  0.02062  0.02095  0.02128  0.02162  0.02197
 *H               0.94752  0.94671  0.94589  0.95877  0.95811  0.95744  0.95676  0.95607
 *H+              0.02624  0.02664  0.02705  0.02062  0.02095  0.02128  0.02162  0.02197

  * THERMODYNAMIC PROPERTIES FITTED TO 20000.K

 NOTE. WEIGHT FRACTION OF FUEL IN TOTAL FUELS AND OF OXIDANT IN TOTAL OXIDANTS









               THERMODYNAMIC EQUILIBRIUM PROPERTIES AT ASSIGNED

                           TEMPERATURE AND PRESSURE

 CASE =                

             REACTANT                    WT FRACTION      ENERGY      TEMP
                                          (SEE NOTE)     KJ/KG-MOL      K  
             H2                           1.0000000         0.000      0.000

 O/F=    0.00000  %FUEL=100.000000  R,EQ.RATIO= 0.000000  PHI,EQ.RATIO= 0.000000

 THERMODYNAMIC PROPERTIES

 P, BAR           0.00165  0.00165  0.00165  0.00165  0.00165  0.00165  0.00165  0.00165
 T, K             7400.00  7410.00  7420.00  7430.00  7440.00  7450.00  7460.00  7470.00
 RHO, KG/CU M    2.6427-6 2.6382-6 2.6337-6 2.6291-6 2.6246-6 2.6201-6 2.6156-6 2.6111-6
 H, KJ/KG        395926.9 396675.7 397431.9 398195.7 398967.1 399746.2 400533.0 401327.8
 U, KJ/KG        333491.0 334132.8 334781.7 335437.8 336101.1 336771.7 337449.7 338135.2
 G, KJ/KG       -1363488.-1365866.-1368245.-1370625.-1373007.-1375389.-1377772.-1380156.
 S, KJ/(KG)(K)   237.7588 237.8599 237.9619 238.0648 238.1685 238.2732 238.3787 238.4852

 M, (1/n)           0.985    0.985    0.985    0.984    0.984    0.984    0.983    0.983
 (dLV/dLP)t      -1.01115 -1.01133 -1.01151 -1.01169 -1.01187 -1.01206 -1.01224 -1.01244
 (dLV/dLT)p        1.2657   1.2696   1.2735   1.2775   1.2815   1.2855   1.2896   1.2938
 Cp, KJ/(KG)(K)   74.5102  75.2512  76.0001  76.7573  77.5226  78.2961  79.0780  79.8683
 GAMMAs            1.2052   1.2040   1.2029   1.2018   1.2006   1.1996   1.1985   1.1974
 SON VEL,M/SEC     8674.5   8677.8   8681.1   8684.5   8687.9   8691.4   8695.0   8698.6

 TRANSPORT PROPERTIES (GASES ONLY)
   CONDUCTIVITY IN UNITS OF MILLIWATTS/(CM)(K)

 VISC,MILLIPOISE  0.61869  0.61742  0.61611  0.61479  0.61345  0.61208  0.61070  0.60929

  WITH EQUILIBRIUM REACTIONS

 Cp, KJ/(KG)(K)   74.5102  75.2512  76.0001  76.7573  77.5226  78.2961  79.0780  79.8683
 CONDUCTIVITY     29.8760  29.9829  30.0907  30.1994  30.3091  30.4196  30.5311  30.6436
 PRANDTL NUMBER    1.5430   1.5496   1.5561   1.5626   1.5690   1.5754   1.5817   1.5880

  WITH FROZEN REACTIONS

 Cp, KJ/(KG)(K)   21.1025  21.1103  21.1181  21.1261  21.1342  21.1424  21.1507  21.1591
 CONDUCTIVITY     19.8192  19.7835  19.7470  19.7099  19.6721  19.6336  19.5945  19.5546
 PRANDTL NUMBER    0.6588   0.6588   0.6589   0.6590   0.6590   0.6591   0.6592   0.6593

 MOLE FRACTIONS

 *e-              0.02231  0.02267  0.02303  0.02339  0.02376  0.02413  0.02450  0.02488
 *H               0.95537  0.95466  0.95395  0.95322  0.95249  0.95174  0.95099  0.95023
 *H+              0.02231  0.02267  0.02303  0.02339  0.02376  0.02413  0.02450  0.02488

  * THERMODYNAMIC PROPERTIES FITTED TO 20000.K

 NOTE. WEIGHT FRACTION OF FUEL IN TOTAL FUELS AND OF OXIDANT IN TOTAL OXIDANTS









               THERMODYNAMIC EQUILIBRIUM PROPERTIES AT ASSIGNED

                           TEMPERATURE AND PRESSURE

 CASE =                

             REACTANT                    WT FRACTION      ENERGY      TEMP
                                          (SEE NOTE)     KJ/KG-MOL      K  
             H2                           1.0000000         0.000      0.000

 O/F=    0.00000  %FUEL=100.000000  R,EQ.RATIO= 0.000000  PHI,EQ.RATIO= 0.000000

 THERMODYNAMIC PROPERTIES

 P, BAR           0.00165  0.00165  0.00180  0.00180  0.00180  0.00180  0.00180  0.00180
 T, K             7480.00  7490.00  7350.00  7360.00  7370.00  7380.00  7390.00  7400.00
 RHO, KG/CU M    2.6065-6 2.6020-6 2.9102-6 2.9053-6 2.9004-6 2.8955-6 2.8906-6 2.8857-6
 H, KJ/KG        402130.4 402941.1 390990.0 391681.2 392379.2 393084.0 393795.7 394514.3
 U, KJ/KG        338828.2 339528.9 329137.9 329724.9 330318.3 330918.2 331524.7 332137.8
 G, KJ/KG       -1382542.-1384928.-1346228.-1348592.-1350957.-1353323.-1355690.-1358058.
 S, KJ/(KG)(K)   238.5925 238.7008 236.3562 236.4502 236.5450 236.6406 236.7369 236.8341

 M, (1/n)           0.982    0.982    0.988    0.988    0.987    0.987    0.987    0.986
 (dLV/dLP)t      -1.01263 -1.01282 -1.00987 -1.01003 -1.01019 -1.01036 -1.01052 -1.01069
 (dLV/dLT)p        1.2980   1.3022   1.2367   1.2402   1.2437   1.2473   1.2510   1.2546
 Cp, KJ/(KG)(K)   80.6669  81.4741  68.7860  69.4578  70.1370  70.8237  71.5180  72.2199
 GAMMAs            1.1963   1.1953   1.2154   1.2141   1.2129   1.2117   1.2104   1.2092
 SON VEL,M/SEC     8702.3   8706.1   8670.4   8673.2   8676.0   8678.9   8681.9   8685.0

 TRANSPORT PROPERTIES (GASES ONLY)
   CONDUCTIVITY IN UNITS OF MILLIWATTS/(CM)(K)

 VISC,MILLIPOISE  0.60786  0.60640  0.62979  0.62869  0.62756  0.62641  0.62524  0.62405

  WITH EQUILIBRIUM REACTIONS

 Cp, KJ/(KG)(K)   80.6669  81.4741  68.7860  69.4578  70.1370  70.8237  71.5180  72.2199
 CONDUCTIVITY     30.7570  30.8714  29.1151  29.2142  29.3141  29.4148  29.5163  29.6186
 PRANDTL NUMBER    1.5942   1.6004   1.4879   1.4947   1.5015   1.5082   1.5150   1.5216

  WITH FROZEN REACTIONS

 Cp, KJ/(KG)(K)   21.1676  21.1762  21.0465  21.0535  21.0606  21.0678  21.0751  21.0824
 CONDUCTIVITY     19.5142  19.4730  20.1389  20.1085  20.0774  20.0457  20.0132  19.9801
 PRANDTL NUMBER    0.6594   0.6594   0.6582   0.6582   0.6583   0.6584   0.6584   0.6585

 MOLE FRACTIONS

 *e-              0.02527  0.02566  0.01976  0.02007  0.02039  0.02072  0.02105  0.02139
 *H               0.94946  0.94868  0.96049  0.95985  0.95921  0.95856  0.95790  0.95723
 *H+              0.02527  0.02566  0.01976  0.02007  0.02039  0.02072  0.02105  0.02139

  * THERMODYNAMIC PROPERTIES FITTED TO 20000.K

 NOTE. WEIGHT FRACTION OF FUEL IN TOTAL FUELS AND OF OXIDANT IN TOTAL OXIDANTS









               THERMODYNAMIC EQUILIBRIUM PROPERTIES AT ASSIGNED

                           TEMPERATURE AND PRESSURE

 CASE =                

             REACTANT                    WT FRACTION      ENERGY      TEMP
                                          (SEE NOTE)     KJ/KG-MOL      K  
             H2                           1.0000000         0.000      0.000

 O/F=    0.00000  %FUEL=100.000000  R,EQ.RATIO= 0.000000  PHI,EQ.RATIO= 0.000000

 THERMODYNAMIC PROPERTIES

 P, BAR           0.00180  0.00180  0.00180  0.00180  0.00180  0.00180  0.00180  0.00180
 T, K             7410.00  7420.00  7430.00  7440.00  7450.00  7460.00  7470.00  7480.00
 RHO, KG/CU M    2.8808-6 2.8759-6 2.8710-6 2.8661-6 2.8612-6 2.8563-6 2.8515-6 2.8466-6
 H, KJ/KG        395240.1 395973.0 396713.0 397460.4 398215.2 398977.4 399747.1 400524.4
 U, KJ/KG        332757.6 333384.2 334017.6 334658.0 335305.3 335959.8 336621.4 337290.2
 G, KJ/KG       -1360427.-1362797.-1365168.-1367539.-1369912.-1372286.-1374661.-1377037.
 S, KJ/(KG)(K)   236.9321 237.0310 237.1306 237.2311 237.3325 237.4348 237.5379 237.6419

 M, (1/n)           0.986    0.986    0.985    0.985    0.985    0.984    0.984    0.984
 (dLV/dLP)t      -1.01086 -1.01103 -1.01120 -1.01138 -1.01156 -1.01174 -1.01192 -1.01210
 (dLV/dLT)p        1.2584   1.2621   1.2659   1.2698   1.2737   1.2776   1.2816   1.2856
 Cp, KJ/(KG)(K)   72.9294  73.6467  74.3718  75.1047  75.8455  76.5943  77.3511  78.1160
 GAMMAs            1.2081   1.2069   1.2057   1.2046   1.2034   1.2023   1.2012   1.2001
 SON VEL,M/SEC     8688.1   8691.2   8694.4   8697.7   8701.1   8704.5   8707.9   8711.5

 TRANSPORT PROPERTIES (GASES ONLY)
   CONDUCTIVITY IN UNITS OF MILLIWATTS/(CM)(K)

 VISC,MILLIPOISE  0.62283  0.62160  0.62034  0.61906  0.61776  0.61644  0.61509  0.61373

  WITH EQUILIBRIUM REACTIONS

 Cp, KJ/(KG)(K)   72.9294  73.6467  74.3718  75.1047  75.8455  76.5943  77.3511  78.1160
 CONDUCTIVITY     29.7218  29.8258  29.9306  30.0363  30.1429  30.2504  30.3588  30.4681
 PRANDTL NUMBER    1.5283   1.5349   1.5414   1.5479   1.5544   1.5608   1.5672   1.5735

  WITH FROZEN REACTIONS

 Cp, KJ/(KG)(K)   21.0899  21.0975  21.1051  21.1129  21.1207  21.1287  21.1367  21.1449
 CONDUCTIVITY     19.9464  19.9119  19.8768  19.8410  19.8046  19.7675  19.7297  19.6913
 PRANDTL NUMBER    0.6585   0.6586   0.6587   0.6587   0.6588   0.6589   0.6590   0.6590

 MOLE FRACTIONS

 *e-              0.02172  0.02207  0.02242  0.02277  0.02312  0.02349  0.02385  0.02422
 *H               0.95655  0.95586  0.95517  0.95446  0.95375  0.95303  0.95230  0.95156
 *H+              0.02172  0.02207  0.02242  0.02277  0.02312  0.02349  0.02385  0.02422

  * THERMODYNAMIC PROPERTIES FITTED TO 20000.K

 NOTE. WEIGHT FRACTION OF FUEL IN TOTAL FUELS AND OF OXIDANT IN TOTAL OXIDANTS









               THERMODYNAMIC EQUILIBRIUM PROPERTIES AT ASSIGNED

                           TEMPERATURE AND PRESSURE

 CASE =                

             REACTANT                    WT FRACTION      ENERGY      TEMP
                                          (SEE NOTE)     KJ/KG-MOL      K  
             H2                           1.0000000         0.000      0.000

 O/F=    0.00000  %FUEL=100.000000  R,EQ.RATIO= 0.000000  PHI,EQ.RATIO= 0.000000

 THERMODYNAMIC PROPERTIES

 P, BAR           0.00180  0.00200  0.00200  0.00200  0.00200  0.00200  0.00200  0.00200
 T, K             7490.00  7350.00  7360.00  7370.00  7380.00  7390.00  7400.00  7410.00
 RHO, KG/CU M    2.8417-6 3.2368-6 3.2314-6 3.2260-6 3.2206-6 3.2152-6 3.2099-6 3.2045-6
 H, KJ/KG        401309.4 389487.5 390153.8 390826.6 391505.9 392191.7 392884.1 393583.2
 U, KJ/KG        337966.4 327698.1 328261.3 328830.7 329406.2 329987.9 330575.9 331170.3
 G, KJ/KG       -1379414.-1339715.-1342068.-1344422.-1346777.-1349133.-1351490.-1353847.
 S, KJ/(KG)(K)   237.7467 235.2656 235.3562 235.4476 235.5397 235.6325 235.7262 235.8206

 M, (1/n)           0.983    0.989    0.989    0.988    0.988    0.988    0.987    0.987
 (dLV/dLP)t      -1.01229 -1.00938 -1.00953 -1.00968 -1.00984 -1.00999 -1.01015 -1.01031
 (dLV/dLT)p        1.2897   1.2248   1.2281   1.2315   1.2349   1.2384   1.2419   1.2454
 Cp, KJ/(KG)(K)   78.8890  66.3177  66.9552  67.5997  68.2513  68.9101  69.5761  70.2494
 GAMMAs            1.1991   1.2207   1.2194   1.2181   1.2168   1.2155   1.2143   1.2131
 SON VEL,M/SEC     8715.0   8684.7   8687.3   8690.0   8692.7   8695.5   8698.3   8701.2

 TRANSPORT PROPERTIES (GASES ONLY)
   CONDUCTIVITY IN UNITS OF MILLIWATTS/(CM)(K)

 VISC,MILLIPOISE  0.61234  0.63569  0.63466  0.63361  0.63254  0.63144  0.63033  0.62919

  WITH EQUILIBRIUM REACTIONS

 Cp, KJ/(KG)(K)   78.8890  66.3177  66.9552  67.5997  68.2513  68.9101  69.5761  70.2494
 CONDUCTIVITY     30.5783  28.8403  28.9354  29.0313  29.1278  29.2252  29.3233  29.4222
 PRANDTL NUMBER    1.5798   1.4618   1.4686   1.4754   1.4821   1.4889   1.4956   1.5023

  WITH FROZEN REACTIONS

 Cp, KJ/(KG)(K)   21.1531  21.0252  21.0319  21.0386  21.0454  21.0523  21.0593  21.0664
 CONDUCTIVITY     19.6522  20.3155  20.2874  20.2587  20.2293  20.1993  20.1686  20.1372
 PRANDTL NUMBER    0.6591   0.6579   0.6579   0.6580   0.6581   0.6581   0.6582   0.6582

 MOLE FRACTIONS

 *e-              0.02460  0.01876  0.01906  0.01937  0.01968  0.01999  0.02031  0.02063
 *H               0.95081  0.96248  0.96187  0.96126  0.96064  0.96001  0.95938  0.95873
 *H+              0.02460  0.01876  0.01906  0.01937  0.01968  0.01999  0.02031  0.02063

  * THERMODYNAMIC PROPERTIES FITTED TO 20000.K

 NOTE. WEIGHT FRACTION OF FUEL IN TOTAL FUELS AND OF OXIDANT IN TOTAL OXIDANTS









               THERMODYNAMIC EQUILIBRIUM PROPERTIES AT ASSIGNED

                           TEMPERATURE AND PRESSURE

 CASE =                

             REACTANT                    WT FRACTION      ENERGY      TEMP
                                          (SEE NOTE)     KJ/KG-MOL      K  
             H2                           1.0000000         0.000      0.000

 O/F=    0.00000  %FUEL=100.000000  R,EQ.RATIO= 0.000000  PHI,EQ.RATIO= 0.000000

 THERMODYNAMIC PROPERTIES

 P, BAR           0.00200  0.00200  0.00200  0.00200  0.00200  0.00200  0.00200  0.00200
 T, K             7420.00  7430.00  7440.00  7450.00  7460.00  7470.00  7480.00  7490.00
 RHO, KG/CU M    3.1991-6 3.1937-6 3.1883-6 3.1829-6 3.1775-6 3.1722-6 3.1668-6 3.1614-6
 H, KJ/KG        394289.1 395001.8 395721.5 396448.1 397181.8 397922.7 398670.8 399426.2
 U, KJ/KG        331771.1 332378.5 332992.4 333612.9 334240.2 334874.3 335515.2 336163.0
 G, KJ/KG       -1356206.-1358566.-1360926.-1363288.-1365650.-1368014.-1370379.-1372744.
 S, KJ/(KG)(K)   235.9158 236.0118 236.1086 236.2062 236.3046 236.4038 236.5039 236.6048

 M, (1/n)           0.987    0.986    0.986    0.986    0.985    0.985    0.985    0.984
 (dLV/dLP)t      -1.01048 -1.01064 -1.01081 -1.01098 -1.01115 -1.01132 -1.01150 -1.01168
 (dLV/dLT)p        1.2490   1.2526   1.2563   1.2600   1.2637   1.2675   1.2713   1.2752
 Cp, KJ/(KG)(K)   70.9301  71.6181  72.3136  73.0166  73.7272  74.4454  75.1712  75.9048
 GAMMAs            1.2119   1.2107   1.2095   1.2083   1.2071   1.2060   1.2049   1.2038
 SON VEL,M/SEC     8704.2   8707.2   8710.3   8713.4   8716.6   8719.9   8723.2   8726.6

 TRANSPORT PROPERTIES (GASES ONLY)
   CONDUCTIVITY IN UNITS OF MILLIWATTS/(CM)(K)

 VISC,MILLIPOISE  0.62803  0.62685  0.62565  0.62443  0.62318  0.62192  0.62063  0.61932

  WITH EQUILIBRIUM REACTIONS

 Cp, KJ/(KG)(K)   70.9301  71.6181  72.3136  73.0166  73.7272  74.4454  75.1712  75.9048
 CONDUCTIVITY     29.5218  29.6223  29.7235  29.8256  29.9284  30.0322  30.1367  30.2421
 PRANDTL NUMBER    1.5089   1.5155   1.5221   1.5287   1.5352   1.5416   1.5481   1.5544

  WITH FROZEN REACTIONS

 Cp, KJ/(KG)(K)   21.0736  21.0809  21.0882  21.0957  21.1032  21.1109  21.1186  21.1265
 CONDUCTIVITY     20.1052  20.0725  20.0392  20.0052  19.9705  19.9351  19.8991  19.8625
 PRANDTL NUMBER    0.6583   0.6583   0.6584   0.6585   0.6585   0.6586   0.6587   0.6587

 MOLE FRACTIONS

 *e-              0.02096  0.02129  0.02163  0.02196  0.02231  0.02266  0.02301  0.02336
 *H               0.95808  0.95742  0.95675  0.95607  0.95538  0.95469  0.95398  0.95327
 *H+              0.02096  0.02129  0.02163  0.02196  0.02231  0.02266  0.02301  0.02336

  * THERMODYNAMIC PROPERTIES FITTED TO 20000.K

 NOTE. WEIGHT FRACTION OF FUEL IN TOTAL FUELS AND OF OXIDANT IN TOTAL OXIDANTS









               THERMODYNAMIC EQUILIBRIUM PROPERTIES AT ASSIGNED

                           TEMPERATURE AND PRESSURE

 CASE =                

             REACTANT                    WT FRACTION      ENERGY      TEMP
                                          (SEE NOTE)     KJ/KG-MOL      K  
             H2                           1.0000000         0.000      0.000

 O/F=    0.00000  %FUEL=100.000000  R,EQ.RATIO= 0.000000  PHI,EQ.RATIO= 0.000000

 THERMODYNAMIC PROPERTIES

 P, BAR           0.00225  0.00225  0.00225  0.00225  0.00225  0.00225  0.00225  0.00225
 T, K             7350.00  7360.00  7370.00  7380.00  7390.00  7400.00  7410.00  7420.00
 RHO, KG/CU M    3.6453-6 3.6393-6 3.6333-6 3.6273-6 3.6213-6 3.6153-6 3.6093-6 3.6033-6
 H, KJ/KG        387898.8 388538.9 389185.0 389837.2 390495.6 391160.3 391831.3 392508.6
 U, KJ/KG        326175.7 326713.8 327257.7 327807.4 328363.0 328924.5 329492.0 330065.6
 G, KJ/KG       -1332441.-1334782.-1337124.-1339467.-1341811.-1344155.-1346501.-1348847.
 S, KJ/(KG)(K)   234.0599 234.1469 234.2346 234.3230 234.4122 234.5021 234.5927 234.6840

 M, (1/n)           0.990    0.990    0.990    0.989    0.989    0.989    0.988    0.988
 (dLV/dLP)t      -1.00885 -1.00899 -1.00914 -1.00929 -1.00943 -1.00958 -1.00974 -1.00989
 (dLV/dLT)p        1.2122   1.2153   1.2185   1.2217   1.2250   1.2283   1.2317   1.2350
 Cp, KJ/(KG)(K)   63.7076  64.3087  64.9165  65.5310  66.1523  66.7804  67.4153  68.0572
 GAMMAs            1.2267   1.2254   1.2241   1.2227   1.2214   1.2201   1.2189   1.2176
 SON VEL,M/SEC     8701.6   8704.0   8706.5   8709.0   8711.5   8714.2   8716.9   8719.6

 TRANSPORT PROPERTIES (GASES ONLY)
   CONDUCTIVITY IN UNITS OF MILLIWATTS/(CM)(K)

 VISC,MILLIPOISE  0.64203  0.64109  0.64012  0.63913  0.63812  0.63709  0.63604  0.63496

  WITH EQUILIBRIUM REACTIONS

 Cp, KJ/(KG)(K)   63.7076  64.3087  64.9165  65.5310  66.1523  66.7804  67.4153  68.0572
 CONDUCTIVITY     28.5515  28.6424  28.7341  28.8264  28.9194  29.0130  29.1075  29.2026
 PRANDTL NUMBER    1.4326   1.4394   1.4462   1.4529   1.4597   1.4664   1.4731   1.4798

  WITH FROZEN REACTIONS

 Cp, KJ/(KG)(K)   21.0027  21.0090  21.0153  21.0218  21.0283  21.0349  21.0416  21.0484
 CONDUCTIVITY     20.5049  20.4794  20.4533  20.4266  20.3992  20.3711  20.3424  20.3130
 PRANDTL NUMBER    0.6576   0.6577   0.6577   0.6578   0.6578   0.6578   0.6579   0.6579

 MOLE FRACTIONS

 *e-              0.01771  0.01799  0.01828  0.01857  0.01887  0.01917  0.01948  0.01979
 *H               0.96458  0.96401  0.96344  0.96285  0.96226  0.96165  0.96105  0.96043
 *H+              0.01771  0.01799  0.01828  0.01857  0.01887  0.01917  0.01948  0.01979

  * THERMODYNAMIC PROPERTIES FITTED TO 20000.K

 NOTE. WEIGHT FRACTION OF FUEL IN TOTAL FUELS AND OF OXIDANT IN TOTAL OXIDANTS









               THERMODYNAMIC EQUILIBRIUM PROPERTIES AT ASSIGNED

                           TEMPERATURE AND PRESSURE

 CASE =                

             REACTANT                    WT FRACTION      ENERGY      TEMP
                                          (SEE NOTE)     KJ/KG-MOL      K  
             H2                           1.0000000         0.000      0.000

 O/F=    0.00000  %FUEL=100.000000  R,EQ.RATIO= 0.000000  PHI,EQ.RATIO= 0.000000

 THERMODYNAMIC PROPERTIES

 P, BAR           0.00225  0.00225  0.00225  0.00225  0.00225  0.00225  0.00225  0.00250
 T, K             7430.00  7440.00  7450.00  7460.00  7470.00  7480.00  7490.00  7350.00
 RHO, KG/CU M    3.5973-6 3.5913-6 3.5853-6 3.5793-6 3.5733-6 3.5673-6 3.5613-6 4.0540-6
 H, KJ/KG        393192.4 393882.8 394579.7 395283.3 395993.6 396710.8 397434.8 386554.8
 U, KJ/KG        330645.3 331231.2 331823.4 332421.9 333026.9 333638.2 334256.2 324887.7
 G, KJ/KG       -1351194.-1353542.-1355892.-1358242.-1360593.-1362945.-1365298.-1325941.
 S, KJ/(KG)(K)   234.7761 234.8690 234.9626 235.0570 235.1521 235.2481 235.3448 232.9926

 M, (1/n)           0.988    0.987    0.987    0.987    0.986    0.986    0.986    0.991
 (dLV/dLP)t      -1.01005 -1.01020 -1.01036 -1.01053 -1.01069 -1.01086 -1.01102 -1.00841
 (dLV/dLT)p        1.2385   1.2419   1.2454   1.2490   1.2525   1.2562   1.2598   1.2015
 Cp, KJ/(KG)(K)   68.7061  69.3620  70.0250  70.6951  71.3724  72.0570  72.7488  61.4992
 GAMMAs            1.2164   1.2151   1.2139   1.2127   1.2115   1.2104   1.2092   1.2323
 SON VEL,M/SEC     8722.4   8725.3   8728.2   8731.1   8734.2   8737.3   8740.4   8717.5

 TRANSPORT PROPERTIES (GASES ONLY)
   CONDUCTIVITY IN UNITS OF MILLIWATTS/(CM)(K)

 VISC,MILLIPOISE  0.63387  0.63275  0.63161  0.63046  0.62928  0.62808  0.62685  0.64749

  WITH EQUILIBRIUM REACTIONS

 Cp, KJ/(KG)(K)   68.7061  69.3620  70.0250  70.6951  71.3724  72.0570  72.7488  61.4992
 CONDUCTIVITY     29.2984  29.3950  29.4923  29.5904  29.6893  29.7889  29.8893  28.3085
 PRANDTL NUMBER    1.4864   1.4931   1.4997   1.5062   1.5128   1.5193   1.5257   1.4066

  WITH FROZEN REACTIONS

 Cp, KJ/(KG)(K)   21.0552  21.0622  21.0692  21.0763  21.0836  21.0909  21.0983  20.9836
 CONDUCTIVITY     20.2830  20.2523  20.2210  20.1890  20.1564  20.1231  20.0891  20.6674
 PRANDTL NUMBER    0.6580   0.6581   0.6581   0.6582   0.6582   0.6583   0.6583   0.6574

 MOLE FRACTIONS

 *e-              0.02010  0.02041  0.02073  0.02106  0.02139  0.02172  0.02206  0.01681
 *H               0.95980  0.95917  0.95853  0.95788  0.95722  0.95656  0.95588  0.96637
 *H+              0.02010  0.02041  0.02073  0.02106  0.02139  0.02172  0.02206  0.01681

  * THERMODYNAMIC PROPERTIES FITTED TO 20000.K

 NOTE. WEIGHT FRACTION OF FUEL IN TOTAL FUELS AND OF OXIDANT IN TOTAL OXIDANTS









               THERMODYNAMIC EQUILIBRIUM PROPERTIES AT ASSIGNED

                           TEMPERATURE AND PRESSURE

 CASE =                

             REACTANT                    WT FRACTION      ENERGY      TEMP
                                          (SEE NOTE)     KJ/KG-MOL      K  
             H2                           1.0000000         0.000      0.000

 O/F=    0.00000  %FUEL=100.000000  R,EQ.RATIO= 0.000000  PHI,EQ.RATIO= 0.000000

 THERMODYNAMIC PROPERTIES

 P, BAR           0.00250  0.00250  0.00250  0.00250  0.00250  0.00250  0.00250  0.00250
 T, K             7360.00  7370.00  7380.00  7390.00  7400.00  7410.00  7420.00  7430.00
 RHO, KG/CU M    4.0474-6 4.0408-6 4.0342-6 4.0275-6 4.0209-6 4.0143-6 4.0077-6 4.0011-6
 H, KJ/KG        387172.6 387796.2 388425.5 389060.8 389701.9 390349.1 391002.3 391661.6
 U, KJ/KG        325404.6 325927.0 326454.8 326988.3 327527.4 328072.1 328622.6 329179.0
 G, KJ/KG       -1328271.-1330602.-1332935.-1335267.-1337601.-1339936.-1342271.-1344608.
 S, KJ/(KG)(K)   233.0766 233.1613 233.2466 233.3326 233.4193 233.5067 233.5948 233.6836

 M, (1/n)           0.991    0.990    0.990    0.990    0.990    0.989    0.989    0.989
 (dLV/dLP)t      -1.00854 -1.00868 -1.00882 -1.00896 -1.00910 -1.00925 -1.00939 -1.00954
 (dLV/dLT)p        1.2045   1.2075   1.2106   1.2137   1.2168   1.2200   1.2232   1.2265
 Cp, KJ/(KG)(K)   62.0695  62.6462  63.2293  63.8188  64.4148  65.0173  65.6264  66.2421
 GAMMAs            1.2309   1.2296   1.2282   1.2269   1.2255   1.2242   1.2229   1.2216
 SON VEL,M/SEC     8719.7   8721.9   8724.3   8726.6   8729.1   8731.6   8734.1   8736.7

 TRANSPORT PROPERTIES (GASES ONLY)
   CONDUCTIVITY IN UNITS OF MILLIWATTS/(CM)(K)

 VISC,MILLIPOISE  0.64662  0.64572  0.64480  0.64387  0.64291  0.64193  0.64093  0.63991

  WITH EQUILIBRIUM REACTIONS

 Cp, KJ/(KG)(K)   62.0695  62.6462  63.2293  63.8188  64.4148  65.0173  65.6264  66.2421
 CONDUCTIVITY     28.3960  28.4841  28.5728  28.6622  28.7522  28.8429  28.9342  29.0263
 PRANDTL NUMBER    1.4134   1.4202   1.4269   1.4336   1.4403   1.4470   1.4537   1.4604

  WITH FROZEN REACTIONS

 Cp, KJ/(KG)(K)   20.9896  20.9956  21.0018  21.0080  21.0142  21.0206  21.0270  21.0336
 CONDUCTIVITY     20.6442  20.6204  20.5959  20.5708  20.5450  20.5187  20.4916  20.4640
 PRANDTL NUMBER    0.6574   0.6575   0.6575   0.6576   0.6576   0.6576   0.6577   0.6577

 MOLE FRACTIONS

 *e-              0.01709  0.01736  0.01764  0.01792  0.01821  0.01850  0.01879  0.01909
 *H               0.96583  0.96528  0.96472  0.96416  0.96359  0.96301  0.96242  0.96183
 *H+              0.01709  0.01736  0.01764  0.01792  0.01821  0.01850  0.01879  0.01909

  * THERMODYNAMIC PROPERTIES FITTED TO 20000.K

 NOTE. WEIGHT FRACTION OF FUEL IN TOTAL FUELS AND OF OXIDANT IN TOTAL OXIDANTS









               THERMODYNAMIC EQUILIBRIUM PROPERTIES AT ASSIGNED

                           TEMPERATURE AND PRESSURE

 CASE =                

             REACTANT                    WT FRACTION      ENERGY      TEMP
                                          (SEE NOTE)     KJ/KG-MOL      K  
             H2                           1.0000000         0.000      0.000

 O/F=    0.00000  %FUEL=100.000000  R,EQ.RATIO= 0.000000  PHI,EQ.RATIO= 0.000000

 THERMODYNAMIC PROPERTIES

 P, BAR           0.00250  0.00250  0.00250  0.00250  0.00250  0.00250  0.00280  0.00280
 T, K             7440.00  7450.00  7460.00  7470.00  7480.00  7490.00  7350.00  7360.00
 RHO, KG/CU M    3.9945-6 3.9879-6 3.9813-6 3.9747-6 3.9681-6 3.9615-6 4.5447-6 4.5374-6
 H, KJ/KG        392327.2 392999.0 393677.1 394361.6 395052.5 395750.0 385185.9 385781.1
 U, KJ/KG        329741.2 330309.4 330883.6 331463.9 332050.3 332642.9 323576.0 324071.2
 G, KJ/KG       -1346945.-1349283.-1351622.-1353962.-1356303.-1358645.-1318956.-1321275.
 S, KJ/(KG)(K)   233.7731 233.8634 233.9543 234.0460 234.1385 234.2316 231.8560 231.9369

 M, (1/n)           0.988    0.988    0.988    0.987    0.987    0.987    0.992    0.992
 (dLV/dLP)t      -1.00969 -1.00984 -1.01000 -1.01015 -1.01031 -1.01047 -1.00795 -1.00808
 (dLV/dLT)p        1.2298   1.2331   1.2365   1.2399   1.2433   1.2468   1.1906   1.1934
 Cp, KJ/(KG)(K)   66.8645  67.4936  68.1295  68.7722  69.4218  70.0783  59.2497  59.7888
 GAMMAs            1.2204   1.2191   1.2179   1.2166   1.2154   1.2142   1.2385   1.2371
 SON VEL,M/SEC     8739.4   8742.1   8744.9   8747.8   8750.7   8753.6   8735.2   8737.3

 TRANSPORT PROPERTIES (GASES ONLY)
   CONDUCTIVITY IN UNITS OF MILLIWATTS/(CM)(K)

 VISC,MILLIPOISE  0.63887  0.63781  0.63673  0.63563  0.63450  0.63336  0.65313  0.65233

  WITH EQUILIBRIUM REACTIONS

 Cp, KJ/(KG)(K)   66.8645  67.4936  68.1295  68.7722  69.4218  70.0783  59.2497  59.7888
 CONDUCTIVITY     29.1190  29.2124  29.3064  29.4012  29.4968  29.5930  28.0623  28.1463
 PRANDTL NUMBER    1.4670   1.4736   1.4802   1.4868   1.4933   1.4998   1.3790   1.3857

  WITH FROZEN REACTIONS

 Cp, KJ/(KG)(K)   21.0402  21.0468  21.0536  21.0605  21.0674  21.0744  20.9642  20.9699
 CONDUCTIVITY     20.4356  20.4067  20.3771  20.3468  20.3159  20.2843  20.8349  20.8141
 PRANDTL NUMBER    0.6578   0.6578   0.6579   0.6579   0.6580   0.6580   0.6572   0.6572

 MOLE FRACTIONS

 *e-              0.01939  0.01969  0.02000  0.02031  0.02063  0.02095  0.01590  0.01616
 *H               0.96122  0.96061  0.96000  0.95937  0.95874  0.95810  0.96819  0.96768
 *H+              0.01939  0.01969  0.02000  0.02031  0.02063  0.02095  0.01590  0.01616

  * THERMODYNAMIC PROPERTIES FITTED TO 20000.K

 NOTE. WEIGHT FRACTION OF FUEL IN TOTAL FUELS AND OF OXIDANT IN TOTAL OXIDANTS









               THERMODYNAMIC EQUILIBRIUM PROPERTIES AT ASSIGNED

                           TEMPERATURE AND PRESSURE

 CASE =                

             REACTANT                    WT FRACTION      ENERGY      TEMP
                                          (SEE NOTE)     KJ/KG-MOL      K  
             H2                           1.0000000         0.000      0.000

 O/F=    0.00000  %FUEL=100.000000  R,EQ.RATIO= 0.000000  PHI,EQ.RATIO= 0.000000

 THERMODYNAMIC PROPERTIES

 P, BAR           0.00280  0.00280  0.00280  0.00280  0.00280  0.00280  0.00280  0.00280
 T, K             7370.00  7380.00  7390.00  7400.00  7410.00  7420.00  7430.00  7440.00
 RHO, KG/CU M    4.5300-6 4.5227-6 4.5153-6 4.5080-6 4.5006-6 4.4933-6 4.4860-6 4.4786-6
 H, KJ/KG        386381.7 386987.7 387599.4 388216.6 388839.5 389468.1 390102.5 390742.8
 U, KJ/KG        324571.6 325077.3 325588.2 326104.4 326626.0 327153.0 327685.6 328223.7
 G, KJ/KG       -1323594.-1325915.-1328236.-1330559.-1332882.-1335206.-1337530.-1339856.
 S, KJ/(KG)(K)   232.0184 232.1006 232.1835 232.2669 232.3510 232.4358 232.5213 232.6074

 M, (1/n)           0.991    0.991    0.991    0.991    0.990    0.990    0.990    0.989
 (dLV/dLP)t      -1.00821 -1.00834 -1.00847 -1.00861 -1.00875 -1.00889 -1.00903 -1.00917
 (dLV/dLT)p        1.1963   1.1992   1.2021   1.2051   1.2081   1.2112   1.2142   1.2173
 Cp, KJ/(KG)(K)   60.3338  60.8849  61.4420  62.0053  62.5747  63.1503  63.7322  64.3205
 GAMMAs            1.2357   1.2343   1.2329   1.2315   1.2301   1.2288   1.2275   1.2261
 SON VEL,M/SEC     8739.3   8741.5   8743.7   8745.9   8748.2   8750.6   8753.0   8755.4

 TRANSPORT PROPERTIES (GASES ONLY)
   CONDUCTIVITY IN UNITS OF MILLIWATTS/(CM)(K)

 VISC,MILLIPOISE  0.65151  0.65068  0.64982  0.64894  0.64804  0.64712  0.64618  0.64522

  WITH EQUILIBRIUM REACTIONS

 Cp, KJ/(KG)(K)   60.3338  60.8849  61.4420  62.0053  62.5747  63.1503  63.7322  64.3205
 CONDUCTIVITY     28.2309  28.3160  28.4018  28.4881  28.5750  28.6626  28.7508  28.8396
 PRANDTL NUMBER    1.3924   1.3991   1.4058   1.4124   1.4191   1.4257   1.4324   1.4390

  WITH FROZEN REACTIONS

 Cp, KJ/(KG)(K)   20.9756  20.9814  20.9873  20.9932  20.9992  21.0053  21.0115  21.0177
 CONDUCTIVITY     20.7927  20.7706  20.7479  20.7246  20.7007  20.6762  20.6510  20.6251
 PRANDTL NUMBER    0.6572   0.6573   0.6573   0.6573   0.6574   0.6574   0.6575   0.6575

 MOLE FRACTIONS

 *e-              0.01642  0.01668  0.01695  0.01722  0.01750  0.01777  0.01805  0.01834
 *H               0.96716  0.96663  0.96610  0.96556  0.96501  0.96445  0.96389  0.96332
 *H+              0.01642  0.01668  0.01695  0.01722  0.01750  0.01777  0.01805  0.01834

  * THERMODYNAMIC PROPERTIES FITTED TO 20000.K

 NOTE. WEIGHT FRACTION OF FUEL IN TOTAL FUELS AND OF OXIDANT IN TOTAL OXIDANTS









               THERMODYNAMIC EQUILIBRIUM PROPERTIES AT ASSIGNED

                           TEMPERATURE AND PRESSURE

 CASE =                

             REACTANT                    WT FRACTION      ENERGY      TEMP
                                          (SEE NOTE)     KJ/KG-MOL      K  
             H2                           1.0000000         0.000      0.000

 O/F=    0.00000  %FUEL=100.000000  R,EQ.RATIO= 0.000000  PHI,EQ.RATIO= 0.000000

 THERMODYNAMIC PROPERTIES

 P, BAR           0.00280  0.00280  0.00280  0.00280  0.00280  0.00310  0.00310  0.00310
 T, K             7450.00  7460.00  7470.00  7480.00  7490.00  7350.00  7360.00  7370.00
 RHO, KG/CU M    4.4713-6 4.4640-6 4.4567-6 4.4493-6 4.4420-6 5.0356-6 5.0275-6 5.0195-6
 H, KJ/KG        391389.0 392041.1 392699.3 393363.6 394034.1 384020.8 384596.7 385177.7
 U, KJ/KG        328767.4 329316.8 329872.0 330432.9 330999.8 322459.5 322936.3 323418.1
 G, KJ/KG       -1342183.-1344510.-1346838.-1349167.-1351497.-1312687.-1314996.-1317306.
 S, KJ/(KG)(K)   232.6942 232.7816 232.8698 232.9587 233.0483 230.8446 230.9229 231.0018

 M, (1/n)           0.989    0.989    0.989    0.988    0.988    0.993    0.992    0.992
 (dLV/dLP)t      -1.00931 -1.00946 -1.00961 -1.00976 -1.00991 -1.00756 -1.00769 -1.00781
 (dLV/dLT)p        1.2205   1.2237   1.2269   1.2302   1.2335   1.1813   1.1840   1.1867
 Cp, KJ/(KG)(K)   64.9150  65.5160  66.1235  66.7375  67.3580  57.3351  57.8475  58.3655
 GAMMAs            1.2248   1.2236   1.2223   1.2210   1.2198   1.2442   1.2427   1.2413
 SON VEL,M/SEC     8758.0   8760.5   8763.2   8765.9   8768.6   8751.9   8753.7   8755.6

 TRANSPORT PROPERTIES (GASES ONLY)
   CONDUCTIVITY IN UNITS OF MILLIWATTS/(CM)(K)

 VISC,MILLIPOISE  0.64424  0.64323  0.64221  0.64117  0.64010  0.65800  0.65727  0.65652

  WITH EQUILIBRIUM REACTIONS

 Cp, KJ/(KG)(K)   64.9150  65.5160  66.1235  66.7375  67.3580  57.3351  57.8475  58.3655
 CONDUCTIVITY     28.9290  29.0191  29.1098  29.2012  29.2933  27.8538  27.9349  28.0165
 PRANDTL NUMBER    1.4456   1.4522   1.4588   1.4653   1.4719   1.3545   1.3611   1.3677

  WITH FROZEN REACTIONS

 Cp, KJ/(KG)(K)   21.0240  21.0304  21.0369  21.0435  21.0501  20.9477  20.9531  20.9585
 CONDUCTIVITY     20.5987  20.5716  20.5438  20.5155  20.4864  20.9791  20.9604  20.9411
 PRANDTL NUMBER    0.6575   0.6576   0.6576   0.6577   0.6577   0.6570   0.6570   0.6571

 MOLE FRACTIONS

 *e-              0.01863  0.01892  0.01922  0.01952  0.01982  0.01513  0.01537  0.01562
 *H               0.96274  0.96216  0.96157  0.96097  0.96036  0.96975  0.96926  0.96876
 *H+              0.01863  0.01892  0.01922  0.01952  0.01982  0.01513  0.01537  0.01562

  * THERMODYNAMIC PROPERTIES FITTED TO 20000.K

 NOTE. WEIGHT FRACTION OF FUEL IN TOTAL FUELS AND OF OXIDANT IN TOTAL OXIDANTS









               THERMODYNAMIC EQUILIBRIUM PROPERTIES AT ASSIGNED

                           TEMPERATURE AND PRESSURE

 CASE =                

             REACTANT                    WT FRACTION      ENERGY      TEMP
                                          (SEE NOTE)     KJ/KG-MOL      K  
             H2                           1.0000000         0.000      0.000

 O/F=    0.00000  %FUEL=100.000000  R,EQ.RATIO= 0.000000  PHI,EQ.RATIO= 0.000000

 THERMODYNAMIC PROPERTIES

 P, BAR           0.00310  0.00310  0.00310  0.00310  0.00310  0.00310  0.00310  0.00310
 T, K             7380.00  7390.00  7400.00  7410.00  7420.00  7430.00  7440.00  7450.00
 RHO, KG/CU M    5.0114-6 5.0033-6 4.9952-6 4.9872-6 4.9791-6 4.9711-6 4.9630-6 4.9550-6
 H, KJ/KG        385764.0 386355.5 386952.4 387554.7 388162.3 388775.5 389394.3 390018.6
 U, KJ/KG        323904.8 324396.5 324893.2 325395.1 325902.2 326414.5 326932.1 327455.0
 G, KJ/KG       -1319616.-1321927.-1324239.-1326552.-1328866.-1331180.-1333496.-1335812.
 S, KJ/(KG)(K)   231.0813 231.1614 231.2421 231.3235 231.4054 231.4880 231.5712 231.6551

 M, (1/n)           0.992    0.992    0.991    0.991    0.991    0.991    0.990    0.990
 (dLV/dLP)t      -1.00793 -1.00806 -1.00819 -1.00832 -1.00845 -1.00859 -1.00872 -1.00886
 (dLV/dLT)p        1.1895   1.1923   1.1951   1.1980   1.2009   1.2038   1.2068   1.2098
 Cp, KJ/(KG)(K)   58.8893  59.4189  59.9543  60.4955  61.0427  61.5958  62.1550  62.7202
 GAMMAs            1.2398   1.2384   1.2370   1.2356   1.2342   1.2329   1.2315   1.2302
 SON VEL,M/SEC     8757.6   8759.6   8761.7   8763.8   8766.0   8768.2   8770.5   8772.9

 TRANSPORT PROPERTIES (GASES ONLY)
   CONDUCTIVITY IN UNITS OF MILLIWATTS/(CM)(K)

 VISC,MILLIPOISE  0.65575  0.65496  0.65415  0.65332  0.65247  0.65159  0.65070  0.64979

  WITH EQUILIBRIUM REACTIONS

 Cp, KJ/(KG)(K)   58.8893  59.4189  59.9543  60.4955  61.0427  61.5958  62.1550  62.7202
 CONDUCTIVITY     28.0986  28.1813  28.2645  28.3484  28.4327  28.5177  28.6032  28.6893
 PRANDTL NUMBER    1.3743   1.3809   1.3876   1.3942   1.4008   1.4074   1.4140   1.4206

  WITH FROZEN REACTIONS

 Cp, KJ/(KG)(K)   20.9640  20.9696  20.9753  20.9810  20.9868  20.9927  20.9986  21.0046
 CONDUCTIVITY     20.9211  20.9006  20.8795  20.8577  20.8353  20.8123  20.7886  20.7644
 PRANDTL NUMBER    0.6571   0.6571   0.6571   0.6572   0.6572   0.6572   0.6573   0.6573

 MOLE FRACTIONS

 *e-              0.01587  0.01612  0.01638  0.01664  0.01691  0.01717  0.01745  0.01772
 *H               0.96826  0.96775  0.96724  0.96671  0.96619  0.96565  0.96511  0.96456
 *H+              0.01587  0.01612  0.01638  0.01664  0.01691  0.01717  0.01745  0.01772

  * THERMODYNAMIC PROPERTIES FITTED TO 20000.K

 NOTE. WEIGHT FRACTION OF FUEL IN TOTAL FUELS AND OF OXIDANT IN TOTAL OXIDANTS









               THERMODYNAMIC EQUILIBRIUM PROPERTIES AT ASSIGNED

                           TEMPERATURE AND PRESSURE

 CASE =                

             REACTANT                    WT FRACTION      ENERGY      TEMP
                                          (SEE NOTE)     KJ/KG-MOL      K  
             H2                           1.0000000         0.000      0.000

 O/F=    0.00000  %FUEL=100.000000  R,EQ.RATIO= 0.000000  PHI,EQ.RATIO= 0.000000

 THERMODYNAMIC PROPERTIES

 P, BAR           0.00310  0.00310  0.00310  0.00310  0.00350  0.00350  0.00350  0.00350
 T, K             7460.00  7470.00  7480.00  7490.00  7350.00  7360.00  7370.00  7380.00
 RHO, KG/CU M    4.9469-6 4.9389-6 4.9308-6 4.9228-6 5.6905-6 5.6814-6 5.6723-6 5.6633-6
 H, KJ/KG        390648.7 391284.5 391926.1 392573.6 382706.8 383261.0 383820.0 384383.9
 U, KJ/KG        327983.3 328517.1 329056.4 329601.2 321200.4 321656.4 322117.1 322582.5
 G, KJ/KG       -1338129.-1340447.-1342765.-1345085.-1305219.-1307516.-1309814.-1312112.
 S, KJ/(KG)(K)   231.7396 231.8248 231.9106 231.9971 229.6498 229.7252 229.8011 229.8775

 M, (1/n)           0.990    0.990    0.989    0.989    0.994    0.993    0.993    0.993
 (dLV/dLP)t      -1.00900 -1.00914 -1.00928 -1.00943 -1.00712 -1.00724 -1.00736 -1.00747
 (dLV/dLT)p        1.2128   1.2159   1.2190   1.2221   1.1707   1.1733   1.1759   1.1785
 Cp, KJ/(KG)(K)   63.2914  63.8689  64.4525  65.0423  55.1757  55.6580  56.1456  56.6386
 GAMMAs            1.2288   1.2275   1.2262   1.2249   1.2512   1.2497   1.2482   1.2467
 SON VEL,M/SEC     8775.3   8777.7   8780.3   8782.8   8772.4   8774.1   8775.8   8777.6

 TRANSPORT PROPERTIES (GASES ONLY)
   CONDUCTIVITY IN UNITS OF MILLIWATTS/(CM)(K)

 VISC,MILLIPOISE  0.64886  0.64791  0.64694  0.64595  0.66357  0.66292  0.66225  0.66155

  WITH EQUILIBRIUM REACTIONS

 Cp, KJ/(KG)(K)   63.2914  63.8689  64.4525  65.0423  55.1757  55.6580  56.1456  56.6386
 CONDUCTIVITY     28.7761  28.8634  28.9513  29.0399  27.6197  27.6975  27.7758  27.8546
 PRANDTL NUMBER    1.4271   1.4337   1.4402   1.4468   1.3256   1.3321   1.3387   1.3452

  WITH FROZEN REACTIONS

 Cp, KJ/(KG)(K)   21.0107  21.0169  21.0231  21.0295  20.9291  20.9341  20.9393  20.9445
 CONDUCTIVITY     20.7395  20.7140  20.6879  20.6611  21.1434  21.1272  21.1103  21.0929
 PRANDTL NUMBER    0.6573   0.6574   0.6574   0.6575   0.6568   0.6569   0.6569   0.6569

 MOLE FRACTIONS

 *e-              0.01800  0.01828  0.01857  0.01886  0.01425  0.01448  0.01471  0.01495
 *H               0.96400  0.96344  0.96287  0.96229  0.97150  0.97104  0.97057  0.97010
 *H+              0.01800  0.01828  0.01857  0.01886  0.01425  0.01448  0.01471  0.01495

  * THERMODYNAMIC PROPERTIES FITTED TO 20000.K

 NOTE. WEIGHT FRACTION OF FUEL IN TOTAL FUELS AND OF OXIDANT IN TOTAL OXIDANTS









               THERMODYNAMIC EQUILIBRIUM PROPERTIES AT ASSIGNED

                           TEMPERATURE AND PRESSURE

 CASE =                

             REACTANT                    WT FRACTION      ENERGY      TEMP
                                          (SEE NOTE)     KJ/KG-MOL      K  
             H2                           1.0000000         0.000      0.000

 O/F=    0.00000  %FUEL=100.000000  R,EQ.RATIO= 0.000000  PHI,EQ.RATIO= 0.000000

 THERMODYNAMIC PROPERTIES

 P, BAR           0.00350  0.00350  0.00350  0.00350  0.00350  0.00350  0.00350  0.00350
 T, K             7390.00  7400.00  7410.00  7420.00  7430.00  7440.00  7450.00  7460.00
 RHO, KG/CU M    5.6543-6 5.6452-6 5.6362-6 5.6272-6 5.6182-6 5.6091-6 5.6001-6 5.5911-6
 H, KJ/KG        384952.8 385526.7 386105.6 386689.7 387279.0 387873.4 388473.2 389078.4
 U, KJ/KG        323052.5 323527.4 324007.0 324491.5 324981.0 325475.4 325974.8 326479.3
 G, KJ/KG       -1314412.-1316711.-1319012.-1321314.-1323616.-1325919.-1328223.-1330528.
 S, KJ/(KG)(K)   229.9546 230.0322 230.1104 230.1891 230.2685 230.3485 230.4290 230.5102

 M, (1/n)           0.993    0.992    0.992    0.992    0.992    0.991    0.991    0.991
 (dLV/dLP)t      -1.00759 -1.00772 -1.00784 -1.00796 -1.00809 -1.00822 -1.00835 -1.00848
 (dLV/dLT)p        1.1811   1.1838   1.1865   1.1892   1.1920   1.1948   1.1976   1.2005
 Cp, KJ/(KG)(K)   57.1371  57.6411  58.1505  58.6656  59.1863  59.7126  60.2446  60.7823
 GAMMAs            1.2452   1.2437   1.2423   1.2409   1.2395   1.2381   1.2367   1.2353
 SON VEL,M/SEC     8779.4   8781.3   8783.2   8785.2   8787.3   8789.4   8791.5   8793.7

 TRANSPORT PROPERTIES (GASES ONLY)
   CONDUCTIVITY IN UNITS OF MILLIWATTS/(CM)(K)

 VISC,MILLIPOISE  0.66084  0.66011  0.65936  0.65859  0.65780  0.65699  0.65616  0.65532

  WITH EQUILIBRIUM REACTIONS

 Cp, KJ/(KG)(K)   57.1371  57.6411  58.1505  58.6656  59.1863  59.7126  60.2446  60.7823
 CONDUCTIVITY     27.9339  28.0138  28.0941  28.1749  28.2563  28.3382  28.4206  28.5036
 PRANDTL NUMBER    1.3517   1.3582   1.3648   1.3713   1.3778   1.3844   1.3909   1.3974

  WITH FROZEN REACTIONS

 Cp, KJ/(KG)(K)   20.9497  20.9551  20.9605  20.9659  20.9715  20.9771  20.9827  20.9885
 CONDUCTIVITY     21.0748  21.0562  21.0369  21.0171  20.9966  20.9755  20.9538  20.9315
 PRANDTL NUMBER    0.6569   0.6569   0.6570   0.6570   0.6570   0.6570   0.6571   0.6571

 MOLE FRACTIONS

 *e-              0.01519  0.01543  0.01568  0.01593  0.01618  0.01644  0.01669  0.01696
 *H               0.96962  0.96913  0.96864  0.96814  0.96764  0.96713  0.96661  0.96608
 *H+              0.01519  0.01543  0.01568  0.01593  0.01618  0.01644  0.01669  0.01696

  * THERMODYNAMIC PROPERTIES FITTED TO 20000.K

 NOTE. WEIGHT FRACTION OF FUEL IN TOTAL FUELS AND OF OXIDANT IN TOTAL OXIDANTS









               THERMODYNAMIC EQUILIBRIUM PROPERTIES AT ASSIGNED

                           TEMPERATURE AND PRESSURE

 CASE =                

             REACTANT                    WT FRACTION      ENERGY      TEMP
                                          (SEE NOTE)     KJ/KG-MOL      K  
             H2                           1.0000000         0.000      0.000

 O/F=    0.00000  %FUEL=100.000000  R,EQ.RATIO= 0.000000  PHI,EQ.RATIO= 0.000000

 THERMODYNAMIC PROPERTIES

 P, BAR           0.00350  0.00350  0.00350  0.00390  0.00390  0.00390  0.00390  0.00390
 T, K             7470.00  7480.00  7490.00  7350.00  7360.00  7370.00  7380.00  7390.00
 RHO, KG/CU M    5.5821-6 5.5732-6 5.5642-6 6.3456-6 6.3355-6 6.3255-6 6.3155-6 6.3055-6
 H, KJ/KG        389688.9 390304.9 390926.4 381600.5 382136.4 382676.8 383221.9 383771.7
 U, KJ/KG        326989.0 327503.9 328024.0 320140.2 320578.8 321021.8 321469.2 321921.0
 G, KJ/KG       -1332833.-1335139.-1337447.-1298566.-1300852.-1303139.-1305427.-1307716.
 S, KJ/(KG)(K)   230.5920 230.6744 230.7574 228.5941 228.6670 228.7403 228.8143 228.8887

 M, (1/n)           0.991    0.990    0.990    0.994    0.994    0.994    0.994    0.993
 (dLV/dLP)t      -1.00861 -1.00875 -1.00888 -1.00676 -1.00686 -1.00698 -1.00709 -1.00720
 (dLV/dLT)p        1.2034   1.2063   1.2093   1.1619   1.1643   1.1667   1.1692   1.1717
 Cp, KJ/(KG)(K)   61.3259  61.8753  62.4305  53.3575  53.8144  54.2764  54.7436  55.2158
 GAMMAs            1.2340   1.2326   1.2313   1.2576   1.2560   1.2545   1.2529   1.2514
 SON VEL,M/SEC     8796.0   8798.3   8800.6   8791.5   8793.0   8794.5   8796.1   8797.8

 TRANSPORT PROPERTIES (GASES ONLY)
   CONDUCTIVITY IN UNITS OF MILLIWATTS/(CM)(K)

 VISC,MILLIPOISE  0.65445  0.65356  0.65265  0.66833  0.66774  0.66714  0.66651  0.66587

  WITH EQUILIBRIUM REACTIONS

 Cp, KJ/(KG)(K)   61.3259  61.8753  62.4305  53.3575  53.8144  54.2764  54.7436  55.2158
 CONDUCTIVITY     28.5872  28.6713  28.7559  27.4235  27.4986  27.5742  27.6502  27.7267
 PRANDTL NUMBER    1.4039   1.4104   1.4169   1.3004   1.3068   1.3132   1.3196   1.3260

  WITH FROZEN REACTIONS

 Cp, KJ/(KG)(K)   20.9943  21.0002  21.0061  20.9134  20.9182  20.9231  20.9280  20.9330
 CONDUCTIVITY     20.9086  20.8851  20.8610  21.2832  21.2691  21.2543  21.2390  21.2231
 PRANDTL NUMBER    0.6571   0.6572   0.6572   0.6567   0.6567   0.6567   0.6568   0.6568

 MOLE FRACTIONS

 *e-              0.01722  0.01749  0.01777  0.01351  0.01373  0.01395  0.01417  0.01440
 *H               0.96555  0.96501  0.96447  0.97298  0.97254  0.97210  0.97165  0.97120
 *H+              0.01722  0.01749  0.01777  0.01351  0.01373  0.01395  0.01417  0.01440

  * THERMODYNAMIC PROPERTIES FITTED TO 20000.K

 NOTE. WEIGHT FRACTION OF FUEL IN TOTAL FUELS AND OF OXIDANT IN TOTAL OXIDANTS









               THERMODYNAMIC EQUILIBRIUM PROPERTIES AT ASSIGNED

                           TEMPERATURE AND PRESSURE

 CASE =                

             REACTANT                    WT FRACTION      ENERGY      TEMP
                                          (SEE NOTE)     KJ/KG-MOL      K  
             H2                           1.0000000         0.000      0.000

 O/F=    0.00000  %FUEL=100.000000  R,EQ.RATIO= 0.000000  PHI,EQ.RATIO= 0.000000

 THERMODYNAMIC PROPERTIES

 P, BAR           0.00390  0.00390  0.00390  0.00390  0.00390  0.00390  0.00390  0.00390
 T, K             7400.00  7410.00  7420.00  7430.00  7440.00  7450.00  7460.00  7470.00
 RHO, KG/CU M    6.2955-6 6.2855-6 6.2755-6 6.2656-6 6.2556-6 6.2456-6 6.2357-6 6.2258-6
 H, KJ/KG        384326.3 384885.6 385449.8 386018.9 386593.0 387172.0 387756.2 388345.5
 U, KJ/KG        322377.4 322838.3 323303.8 323774.0 324248.9 324728.6 325213.1 325702.4
 G, KJ/KG       -1310005.-1312295.-1314586.-1316877.-1319170.-1321463.-1323757.-1326051.
 S, KJ/(KG)(K)   228.9637 229.0392 229.1153 229.1920 229.2692 229.3470 229.4253 229.5042

 M, (1/n)           0.993    0.993    0.993    0.992    0.992    0.992    0.992    0.991
 (dLV/dLP)t      -1.00732 -1.00743 -1.00755 -1.00767 -1.00779 -1.00792 -1.00804 -1.00817
 (dLV/dLT)p        1.1743   1.1768   1.1794   1.1821   1.1847   1.1874   1.1901   1.1929
 Cp, KJ/(KG)(K)   55.6933  56.1760  56.6640  57.1573  57.6560  58.1601  58.6696  59.1846
 GAMMAs            1.2499   1.2484   1.2470   1.2455   1.2441   1.2427   1.2413   1.2399
 SON VEL,M/SEC     8799.5   8801.3   8803.1   8805.0   8806.9   8808.9   8810.9   8813.0

 TRANSPORT PROPERTIES (GASES ONLY)
   CONDUCTIVITY IN UNITS OF MILLIWATTS/(CM)(K)

 VISC,MILLIPOISE  0.66521  0.66453  0.66383  0.66311  0.66237  0.66162  0.66084  0.66004

  WITH EQUILIBRIUM REACTIONS

 Cp, KJ/(KG)(K)   55.6933  56.1760  56.6640  57.1573  57.6560  58.1601  58.6696  59.1846
 CONDUCTIVITY     27.8037  27.8811  27.9590  28.0374  28.1163  28.1957  28.2756  28.3560
 PRANDTL NUMBER    1.3325   1.3389   1.3454   1.3518   1.3583   1.3647   1.3712   1.3776

  WITH FROZEN REACTIONS

 Cp, KJ/(KG)(K)   20.9381  20.9432  20.9484  20.9536  20.9589  20.9643  20.9698  20.9753
 CONDUCTIVITY     21.2067  21.1896  21.1719  21.1537  21.1349  21.1154  21.0954  21.0747
 PRANDTL NUMBER    0.6568   0.6568   0.6568   0.6568   0.6569   0.6569   0.6569   0.6569

 MOLE FRACTIONS

 *e-              0.01463  0.01486  0.01510  0.01534  0.01558  0.01583  0.01608  0.01633
 *H               0.97074  0.97027  0.96980  0.96932  0.96883  0.96834  0.96784  0.96734
 *H+              0.01463  0.01486  0.01510  0.01534  0.01558  0.01583  0.01608  0.01633

  * THERMODYNAMIC PROPERTIES FITTED TO 20000.K

 NOTE. WEIGHT FRACTION OF FUEL IN TOTAL FUELS AND OF OXIDANT IN TOTAL OXIDANTS









               THERMODYNAMIC EQUILIBRIUM PROPERTIES AT ASSIGNED

                           TEMPERATURE AND PRESSURE

 CASE =                

             REACTANT                    WT FRACTION      ENERGY      TEMP
                                          (SEE NOTE)     KJ/KG-MOL      K  
             H2                           1.0000000         0.000      0.000

 O/F=    0.00000  %FUEL=100.000000  R,EQ.RATIO= 0.000000  PHI,EQ.RATIO= 0.000000

 THERMODYNAMIC PROPERTIES

 P, BAR           0.00390  0.00390  0.00440  0.00440  0.00440  0.00440  0.00440  0.00440
 T, K             7480.00  7490.00  7350.00  7360.00  7370.00  7380.00  7390.00  7400.00
 RHO, KG/CU M    6.2158-6 6.2059-6 7.1648-6 7.1535-6 7.1423-6 7.1311-6 7.1199-6 7.1087-6
 H, KJ/KG        388939.9 389539.6 380435.8 380952.4 381473.3 381998.6 382528.3 383062.5
 U, KJ/KG        326196.7 326696.0 319024.1 319444.3 319868.6 320297.0 320729.7 321166.6
 G, KJ/KG       -1328347.-1330643.-1291155.-1293430.-1295705.-1297981.-1300258.-1302536.
 S, KJ/(KG)(K)   229.5838 229.6639 227.4274 227.4976 227.5683 227.6395 227.7113 227.7835

 M, (1/n)           0.991    0.991    0.995    0.995    0.995    0.994    0.994    0.994
 (dLV/dLP)t      -1.00829 -1.00842 -1.00637 -1.00647 -1.00657 -1.00668 -1.00679 -1.00689
 (dLV/dLT)p        1.1957   1.1985   1.1525   1.1548   1.1571   1.1595   1.1618   1.1642
 Cp, KJ/(KG)(K)   59.7051  60.2312  51.4432  51.8734  52.3085  52.7483  53.1930  53.6426
 GAMMAs            1.2385   1.2371   1.2648   1.2632   1.2617   1.2601   1.2585   1.2570
 SON VEL,M/SEC     8815.1   8817.3   8813.4   8814.7   8816.1   8817.5   8819.0   8820.6

 TRANSPORT PROPERTIES (GASES ONLY)
   CONDUCTIVITY IN UNITS OF MILLIWATTS/(CM)(K)

 VISC,MILLIPOISE  0.65923  0.65839  0.67340  0.67289  0.67236  0.67181  0.67124  0.67065

  WITH EQUILIBRIUM REACTIONS

 Cp, KJ/(KG)(K)   59.7051  60.2312  51.4432  51.8734  52.3085  52.7483  53.1930  53.6426
 CONDUCTIVITY     28.4370  28.5184  27.2177  27.2900  27.3628  27.4359  27.5095  27.5835
 PRANDTL NUMBER    1.3841   1.3905   1.2728   1.2790   1.2853   1.2916   1.2979   1.3042

  WITH FROZEN REACTIONS

 Cp, KJ/(KG)(K)   20.9809  20.9865  20.8969  20.9014  20.9060  20.9107  20.9154  20.9201
 CONDUCTIVITY     21.0535  21.0316  21.4317  21.4199  21.4074  21.3944  21.3809  21.3668
 PRANDTL NUMBER    0.6570   0.6570   0.6566   0.6566   0.6566   0.6566   0.6566   0.6566

 MOLE FRACTIONS

 *e-              0.01659  0.01685  0.01273  0.01293  0.01314  0.01335  0.01357  0.01379
 *H               0.96682  0.96631  0.97454  0.97413  0.97371  0.97329  0.97286  0.97242
 *H+              0.01659  0.01685  0.01273  0.01293  0.01314  0.01335  0.01357  0.01379

  * THERMODYNAMIC PROPERTIES FITTED TO 20000.K

 NOTE. WEIGHT FRACTION OF FUEL IN TOTAL FUELS AND OF OXIDANT IN TOTAL OXIDANTS









               THERMODYNAMIC EQUILIBRIUM PROPERTIES AT ASSIGNED

                           TEMPERATURE AND PRESSURE

 CASE =                

             REACTANT                    WT FRACTION      ENERGY      TEMP
                                          (SEE NOTE)     KJ/KG-MOL      K  
             H2                           1.0000000         0.000      0.000

 O/F=    0.00000  %FUEL=100.000000  R,EQ.RATIO= 0.000000  PHI,EQ.RATIO= 0.000000

 THERMODYNAMIC PROPERTIES

 P, BAR           0.00440  0.00440  0.00440  0.00440  0.00440  0.00440  0.00440  0.00440
 T, K             7410.00  7420.00  7430.00  7440.00  7450.00  7460.00  7470.00  7480.00
 RHO, KG/CU M    7.0975-6 7.0864-6 7.0752-6 7.0641-6 7.0529-6 7.0418-6 7.0306-6 7.0195-6
 H, KJ/KG        383601.1 384144.4 384692.3 385244.8 385802.1 386364.2 386931.0 387502.8
 U, KJ/KG        321607.8 322053.3 322503.3 322957.7 323416.5 323879.9 324347.9 324820.5
 G, KJ/KG       -1304814.-1307093.-1309372.-1311653.-1313934.-1316216.-1318498.-1320782.
 S, KJ/(KG)(K)   227.8563 227.9295 228.0033 228.0776 228.1525 228.2279 228.3038 228.3803

 M, (1/n)           0.994    0.994    0.993    0.993    0.993    0.993    0.992    0.992
 (dLV/dLP)t      -1.00700 -1.00712 -1.00723 -1.00734 -1.00746 -1.00758 -1.00770 -1.00782
 (dLV/dLT)p        1.1666   1.1691   1.1716   1.1741   1.1766   1.1792   1.1818   1.1844
 Cp, KJ/(KG)(K)   54.0971  54.5566  55.0211  55.4907  55.9653  56.4451  56.9300  57.4202
 GAMMAs            1.2555   1.2540   1.2525   1.2510   1.2495   1.2481   1.2466   1.2452
 SON VEL,M/SEC     8822.2   8823.8   8825.5   8827.2   8829.0   8830.8   8832.7   8834.7

 TRANSPORT PROPERTIES (GASES ONLY)
   CONDUCTIVITY IN UNITS OF MILLIWATTS/(CM)(K)

 VISC,MILLIPOISE  0.67005  0.66942  0.66878  0.66812  0.66744  0.66674  0.66603  0.66529

  WITH EQUILIBRIUM REACTIONS

 Cp, KJ/(KG)(K)   54.0971  54.5566  55.0211  55.4907  55.9653  56.4451  56.9300  57.4202
 CONDUCTIVITY     27.6580  27.7329  27.8082  27.8840  27.9602  28.0369  28.1141  28.1917
 PRANDTL NUMBER    1.3106   1.3169   1.3232   1.3296   1.3360   1.3423   1.3487   1.3550

  WITH FROZEN REACTIONS

 Cp, KJ/(KG)(K)   20.9250  20.9299  20.9348  20.9398  20.9449  20.9501  20.9553  20.9605
 CONDUCTIVITY     21.3521  21.3368  21.3210  21.3045  21.2875  21.2700  21.2518  21.2330
 PRANDTL NUMBER    0.6566   0.6567   0.6567   0.6567   0.6567   0.6567   0.6567   0.6568

 MOLE FRACTIONS

 *e-              0.01401  0.01423  0.01446  0.01469  0.01492  0.01515  0.01539  0.01563
 *H               0.97198  0.97154  0.97109  0.97063  0.97016  0.96969  0.96922  0.96874
 *H+              0.01401  0.01423  0.01446  0.01469  0.01492  0.01515  0.01539  0.01563

  * THERMODYNAMIC PROPERTIES FITTED TO 20000.K

 NOTE. WEIGHT FRACTION OF FUEL IN TOTAL FUELS AND OF OXIDANT IN TOTAL OXIDANTS









               THERMODYNAMIC EQUILIBRIUM PROPERTIES AT ASSIGNED

                           TEMPERATURE AND PRESSURE

 CASE =                

             REACTANT                    WT FRACTION      ENERGY      TEMP
                                          (SEE NOTE)     KJ/KG-MOL      K  
             H2                           1.0000000         0.000      0.000

 O/F=    0.00000  %FUEL=100.000000  R,EQ.RATIO= 0.000000  PHI,EQ.RATIO= 0.000000

 THERMODYNAMIC PROPERTIES

 P, BAR           0.00440
 T, K             7490.00
 RHO, KG/CU M    7.0084-6
 H, KJ/KG        388079.5
 U, KJ/KG        325297.8
 G, KJ/KG       -1323066.
 S, KJ/(KG)(K)   228.4573

 M, (1/n)           0.992
 (dLV/dLP)t      -1.00794
 (dLV/dLT)p        1.1871
 Cp, KJ/(KG)(K)   57.9156
 GAMMAs            1.2438
 SON VEL,M/SEC     8836.7

 TRANSPORT PROPERTIES (GASES ONLY)
   CONDUCTIVITY IN UNITS OF MILLIWATTS/(CM)(K)

 VISC,MILLIPOISE  0.66454

  WITH EQUILIBRIUM REACTIONS

 Cp, KJ/(KG)(K)   57.9156
 CONDUCTIVITY     28.2698
 PRANDTL NUMBER    1.3614

  WITH FROZEN REACTIONS

 Cp, KJ/(KG)(K)   20.9659
 CONDUCTIVITY     21.2137
 PRANDTL NUMBER    0.6568

 MOLE FRACTIONS

 *e-              0.01588
 *H               0.96825
 *H+              0.01588

  * THERMODYNAMIC PROPERTIES FITTED TO 20000.K

 NOTE. WEIGHT FRACTION OF FUEL IN TOTAL FUELS AND OF OXIDANT IN TOTAL OXIDANTS



  
