
 *******************************************************************************

         NASA-GLENN CHEMICAL EQUILIBRIUM PROGRAM CEA2, MAY 21, 2004
                   BY  BONNIE MCBRIDE AND SANFORD GORDON
      REFS: NASA RP-1311, PART I, 1994 AND NASA RP-1311, PART II, 1996

 *******************************************************************************



  prob tp ions
  p,bar= 2.5,2.8,3.1,3.5,3.9,4.4,4.9,5.4,6.0,6.7,7.4,8.25,9.1,10.0,11.0
  t,k= 1950,1960,1970,1980,1990,2000,2010,2020,2030,2040,2050,2060,2070,2080,2090
  
  reac
  na H2                wt%=100.0000
  
  output short
  output siunits
  output transport
  
 end





               THERMODYNAMIC EQUILIBRIUM PROPERTIES AT ASSIGNED

                           TEMPERATURE AND PRESSURE

 CASE =                

             REACTANT                    WT FRACTION      ENERGY      TEMP
                                          (SEE NOTE)     KJ/KG-MOL      K  
             H2                           1.0000000         0.000      0.000

 O/F=    0.00000  %FUEL=100.000000  R,EQ.RATIO= 0.000000  PHI,EQ.RATIO= 0.000000

 THERMODYNAMIC PROPERTIES

 P, BAR            2.5000   2.5000   2.5000   2.5000   2.5000   2.5000   2.5000   2.5000
 T, K             1950.00  1960.00  1970.00  1980.00  1990.00  2000.00  2010.00  2020.00
 RHO, KG/CU M    3.1072-2 3.0913-2 3.0755-2 3.0599-2 3.0444-2 3.0291-2 3.0139-2 2.9989-2
 H, KJ/KG         25500.3  25675.5  25851.4  26027.8  26204.8  26382.5  26560.8  26739.7
 U, KJ/KG         17454.6  17588.3  17722.7  17857.6  17993.1  18129.2  18265.9  18403.3
 G, KJ/KG       -148641.8-149534.8-150429.1-151324.4-152220.5-153117.6-154015.5-154914.4
 S, KJ/(KG)(K)    89.3036  89.3930  89.4825  89.5718  89.6610  89.7500  89.8390  89.9278

 M, (1/n)           2.015    2.015    2.015    2.015    2.015    2.015    2.015    2.015
 (dLV/dLP)t      -1.00018 -1.00019 -1.00021 -1.00022 -1.00024 -1.00026 -1.00028 -1.00029
 (dLV/dLT)p        1.0051   1.0054   1.0058   1.0062   1.0066   1.0070   1.0075   1.0080
 Cp, KJ/(KG)(K)   17.5019  17.5568  17.6137  17.6724  17.7331  17.7959  17.8608  17.9280
 GAMMAs            1.3123   1.3113   1.3102   1.3092   1.3081   1.3070   1.3059   1.3048
 SON VEL,M/SEC     3249.3   3256.4   3263.5   3270.5   3277.5   3284.4   3291.2   3298.0

 TRANSPORT PROPERTIES (GASES ONLY)
   CONDUCTIVITY IN UNITS OF MILLIWATTS/(CM)(K)

 VISC,MILLIPOISE  0.32905  0.33029  0.33153  0.33277  0.33401  0.33525  0.33649  0.33774

  WITH EQUILIBRIUM REACTIONS

 Cp, KJ/(KG)(K)   17.5019  17.5568  17.6137  17.6724  17.7331  17.7959  17.8608  17.9280
 CONDUCTIVITY      8.4314   8.5042   8.5795   8.6570   8.7367   8.8187   8.9032   8.9902
 PRANDTL NUMBER    0.6830   0.6819   0.6806   0.6793   0.6780   0.6765   0.6750   0.6735

  WITH FROZEN REACTIONS

 Cp, KJ/(KG)(K)   16.9162  16.9341  16.9519  16.9696  16.9873  17.0048  17.0223  17.0397
 CONDUCTIVITY      7.9093   7.9467   7.9845   8.0225   8.0605   8.0986   8.1367   8.1749
 PRANDTL NUMBER    0.7038   0.7038   0.7039   0.7039   0.7039   0.7039   0.7040   0.7040

 MOLE FRACTIONS

 *H               0.00073  0.00078  0.00084  0.00090  0.00096  0.00103  0.00110  0.00118
 *H2              0.99927  0.99922  0.99916  0.99910  0.99904  0.99897  0.99890  0.99882

  * THERMODYNAMIC PROPERTIES FITTED TO 20000.K

 NOTE. WEIGHT FRACTION OF FUEL IN TOTAL FUELS AND OF OXIDANT IN TOTAL OXIDANTS









               THERMODYNAMIC EQUILIBRIUM PROPERTIES AT ASSIGNED

                           TEMPERATURE AND PRESSURE

 CASE =                

             REACTANT                    WT FRACTION      ENERGY      TEMP
                                          (SEE NOTE)     KJ/KG-MOL      K  
             H2                           1.0000000         0.000      0.000

 O/F=    0.00000  %FUEL=100.000000  R,EQ.RATIO= 0.000000  PHI,EQ.RATIO= 0.000000

 THERMODYNAMIC PROPERTIES

 P, BAR            2.5000   2.5000   2.5000   2.5000   2.5000   2.5000   2.5000   2.8000
 T, K             2030.00  2040.00  2050.00  2060.00  2070.00  2080.00  2090.00  1950.00
 RHO, KG/CU M    2.9840-2 2.9692-2 2.9546-2 2.9401-2 2.9258-2 2.9116-2 2.8975-2 3.4802-2
 H, KJ/KG         26919.3  27099.6  27280.7  27462.5  27645.1  27828.5  28012.8  25495.7
 U, KJ/KG         18541.3  18680.0  18819.4  18959.5  19100.4  19242.1  19384.6  17450.2
 G, KJ/KG       -155814.1-156714.7-157616.2-158518.6-159421.8-160326.0-161231.0-147729.5
 S, KJ/(KG)(K)    90.0165  90.1051  90.1936  90.2821  90.3705  90.4589  90.5473  88.8335

 M, (1/n)           2.015    2.015    2.014    2.014    2.014    2.014    2.014    2.015
 (dLV/dLP)t      -1.00031 -1.00034 -1.00036 -1.00038 -1.00041 -1.00044 -1.00046 -1.00017
 (dLV/dLT)p        1.0085   1.0090   1.0096   1.0102   1.0108   1.0114   1.0121   1.0048
 Cp, KJ/(KG)(K)   17.9974  18.0692  18.1435  18.2204  18.2999  18.3822  18.4673  17.4695
 GAMMAs            1.3036   1.3024   1.3012   1.3000   1.2988   1.2975   1.2962   1.3128
 SON VEL,M/SEC     3304.8   3311.5   3318.2   3324.8   3331.3   3337.8   3344.3   3250.0

 TRANSPORT PROPERTIES (GASES ONLY)
   CONDUCTIVITY IN UNITS OF MILLIWATTS/(CM)(K)

 VISC,MILLIPOISE  0.33898  0.34022  0.34146  0.34271  0.34395  0.34520  0.34645  0.32904

  WITH EQUILIBRIUM REACTIONS

 Cp, KJ/(KG)(K)   17.9974  18.0692  18.1435  18.2204  18.2999  18.3822  18.4673  17.4695
 CONDUCTIVITY      9.0797   9.1720   9.2672   9.3653   9.4664   9.5707   9.6783   8.4018
 PRANDTL NUMBER    0.6719   0.6702   0.6685   0.6668   0.6649   0.6630   0.6611   0.6842

  WITH FROZEN REACTIONS

 Cp, KJ/(KG)(K)   17.0570  17.0743  17.0915  17.1086  17.1256  17.1425  17.1594  16.9161
 CONDUCTIVITY      8.2131   8.2513   8.2897   8.3280   8.3665   8.4050   8.4435   7.9085
 PRANDTL NUMBER    0.7040   0.7040   0.7040   0.7040   0.7040   0.7041   0.7041   0.7038

 MOLE FRACTIONS

 *H               0.00126  0.00135  0.00144  0.00153  0.00163  0.00174  0.00185  0.00069
 *H2              0.99874  0.99865  0.99856  0.99847  0.99837  0.99826  0.99815  0.99931

  * THERMODYNAMIC PROPERTIES FITTED TO 20000.K

 NOTE. WEIGHT FRACTION OF FUEL IN TOTAL FUELS AND OF OXIDANT IN TOTAL OXIDANTS









               THERMODYNAMIC EQUILIBRIUM PROPERTIES AT ASSIGNED

                           TEMPERATURE AND PRESSURE

 CASE =                

             REACTANT                    WT FRACTION      ENERGY      TEMP
                                          (SEE NOTE)     KJ/KG-MOL      K  
             H2                           1.0000000         0.000      0.000

 O/F=    0.00000  %FUEL=100.000000  R,EQ.RATIO= 0.000000  PHI,EQ.RATIO= 0.000000

 THERMODYNAMIC PROPERTIES

 P, BAR            2.8000   2.8000   2.8000   2.8000   2.8000   2.8000   2.8000   2.8000
 T, K             1960.00  1970.00  1980.00  1990.00  2000.00  2010.00  2020.00  2030.00
 RHO, KG/CU M    3.4623-2 3.4447-2 3.4272-2 3.4099-2 3.3927-2 3.3757-2 3.3589-2 3.3422-2
 H, KJ/KG         25670.7  25846.2  26022.2  26198.9  26376.1  26553.9  26732.4  26911.5
 U, KJ/KG         17583.7  17717.7  17852.2  17987.4  18123.1  18259.3  18396.2  18533.8
 G, KJ/KG       -148618.2-149507.9-150398.5-151289.9-152182.3-153075.5-153969.6-154864.6
 S, KJ/(KG)(K)    88.9229  89.0122  89.1014  89.1903  89.2792  89.3679  89.4564  89.5449

 M, (1/n)           2.015    2.015    2.015    2.015    2.015    2.015    2.015    2.015
 (dLV/dLP)t      -1.00018 -1.00020 -1.00021 -1.00023 -1.00024 -1.00026 -1.00028 -1.00030
 (dLV/dLT)p        1.0051   1.0055   1.0058   1.0062   1.0066   1.0071   1.0075   1.0080
 Cp, KJ/(KG)(K)   17.5224  17.5771  17.6336  17.6919  17.7522  17.8145  17.8789  17.9455
 GAMMAs            1.3118   1.3108   1.3098   1.3088   1.3077   1.3066   1.3055   1.3044
 SON VEL,M/SEC     3257.1   3264.2   3271.3   3278.3   3285.2   3292.1   3299.0   3305.8

 TRANSPORT PROPERTIES (GASES ONLY)
   CONDUCTIVITY IN UNITS OF MILLIWATTS/(CM)(K)

 VISC,MILLIPOISE  0.33028  0.33152  0.33276  0.33400  0.33524  0.33648  0.33772  0.33897

  WITH EQUILIBRIUM REACTIONS

 Cp, KJ/(KG)(K)   17.5224  17.5771  17.6336  17.6919  17.7522  17.8145  17.8789  17.9455
 CONDUCTIVITY      8.4731   8.5464   8.6217   8.6991   8.7787   8.8605   8.9448   9.0315
 PRANDTL NUMBER    0.6830   0.6818   0.6806   0.6793   0.6779   0.6765   0.6750   0.6735

  WITH FROZEN REACTIONS

 Cp, KJ/(KG)(K)   16.9340  16.9518  16.9695  16.9872  17.0047  17.0222  17.0396  17.0569
 CONDUCTIVITY      7.9463   7.9842   8.0221   8.0601   8.0982   8.1363   8.1744   8.2126
 PRANDTL NUMBER    0.7038   0.7039   0.7039   0.7039   0.7039   0.7040   0.7040   0.7040

 MOLE FRACTIONS

 *H               0.00074  0.00079  0.00085  0.00091  0.00097  0.00104  0.00111  0.00119
 *H2              0.99926  0.99921  0.99915  0.99909  0.99903  0.99896  0.99889  0.99881

  * THERMODYNAMIC PROPERTIES FITTED TO 20000.K

 NOTE. WEIGHT FRACTION OF FUEL IN TOTAL FUELS AND OF OXIDANT IN TOTAL OXIDANTS









               THERMODYNAMIC EQUILIBRIUM PROPERTIES AT ASSIGNED

                           TEMPERATURE AND PRESSURE

 CASE =                

             REACTANT                    WT FRACTION      ENERGY      TEMP
                                          (SEE NOTE)     KJ/KG-MOL      K  
             H2                           1.0000000         0.000      0.000

 O/F=    0.00000  %FUEL=100.000000  R,EQ.RATIO= 0.000000  PHI,EQ.RATIO= 0.000000

 THERMODYNAMIC PROPERTIES

 P, BAR            2.8000   2.8000   2.8000   2.8000   2.8000   2.8000   3.1000   3.1000
 T, K             2040.00  2050.00  2060.00  2070.00  2080.00  2090.00  1950.00  1960.00
 RHO, KG/CU M    3.3257-2 3.3093-2 3.2931-2 3.2770-2 3.2611-2 3.2453-2 3.8531-2 3.8334-2
 H, KJ/KG         27091.3  27271.8  27453.0  27635.0  27817.7  28001.3  25491.9  25666.6
 U, KJ/KG         18671.9  18810.8  18950.4  19090.7  19231.7  19373.5  17446.5  17579.7
 G, KJ/KG       -155760.5-156657.3-157555.0-158453.5-159352.9-160253.2-146910.6-147795.1
 S, KJ/(KG)(K)    89.6332  89.7215  89.8097  89.8978  89.9859  90.0739  88.4115  88.5009

 M, (1/n)           2.015    2.015    2.014    2.014    2.014    2.014    2.015    2.015
 (dLV/dLP)t      -1.00032 -1.00034 -1.00036 -1.00039 -1.00041 -1.00044 -1.00016 -1.00017
 (dLV/dLT)p        1.0085   1.0090   1.0096   1.0102   1.0108   1.0114   1.0046   1.0049
 Cp, KJ/(KG)(K)   18.0143  18.0854  18.1590  18.2351  18.3137  18.3951  17.4420  17.4932
 GAMMAs            1.3033   1.3021   1.3009   1.2997   1.2985   1.2973   1.3133   1.3123
 SON VEL,M/SEC     3312.5   3319.2   3325.9   3332.5   3339.0   3345.5   3250.5   3257.7

 TRANSPORT PROPERTIES (GASES ONLY)
   CONDUCTIVITY IN UNITS OF MILLIWATTS/(CM)(K)

 VISC,MILLIPOISE  0.34021  0.34145  0.34269  0.34394  0.34518  0.34643  0.32904  0.33028

  WITH EQUILIBRIUM REACTIONS

 Cp, KJ/(KG)(K)   18.0143  18.0854  18.1590  18.2351  18.3137  18.3951  17.4420  17.4932
 CONDUCTIVITY      9.1208   9.2128   9.3075   9.4052   9.5058   9.6096   8.3770   8.4467
 PRANDTL NUMBER    0.6719   0.6703   0.6686   0.6668   0.6650   0.6631   0.6851   0.6840

  WITH FROZEN REACTIONS

 Cp, KJ/(KG)(K)   17.0742  17.0913  17.1084  17.1254  17.1424  17.1592  16.9161  16.9339
 CONDUCTIVITY      8.2508   8.2891   8.3274   8.3658   8.4043   8.4428   7.9082   7.9460
 PRANDTL NUMBER    0.7040   0.7040   0.7041   0.7041   0.7041   0.7041   0.7038   0.7039

 MOLE FRACTIONS

 *H               0.00127  0.00136  0.00145  0.00154  0.00164  0.00175  0.00065  0.00070
 *H2              0.99873  0.99864  0.99855  0.99846  0.99836  0.99825  0.99935  0.99930

  * THERMODYNAMIC PROPERTIES FITTED TO 20000.K

 NOTE. WEIGHT FRACTION OF FUEL IN TOTAL FUELS AND OF OXIDANT IN TOTAL OXIDANTS









               THERMODYNAMIC EQUILIBRIUM PROPERTIES AT ASSIGNED

                           TEMPERATURE AND PRESSURE

 CASE =                

             REACTANT                    WT FRACTION      ENERGY      TEMP
                                          (SEE NOTE)     KJ/KG-MOL      K  
             H2                           1.0000000         0.000      0.000

 O/F=    0.00000  %FUEL=100.000000  R,EQ.RATIO= 0.000000  PHI,EQ.RATIO= 0.000000

 THERMODYNAMIC PROPERTIES

 P, BAR            3.1000   3.1000   3.1000   3.1000   3.1000   3.1000   3.1000   3.1000
 T, K             1970.00  1980.00  1990.00  2000.00  2010.00  2020.00  2030.00  2040.00
 RHO, KG/CU M    3.8138-2 3.7945-2 3.7753-2 3.7563-2 3.7375-2 3.7188-2 3.7004-2 3.6821-2
 H, KJ/KG         25841.8  26017.5  26193.8  26370.6  26548.1  26726.2  26904.8  27084.2
 U, KJ/KG         17713.4  17847.7  17982.5  18117.8  18253.7  18390.2  18527.4  18665.1
 G, KJ/KG       -148680.6-149566.9-150454.2-151342.3-152231.3-153121.2-154011.9-154903.6
 S, KJ/(KG)(K)    88.5900  88.6790  88.7678  88.8565  88.9450  89.0333  89.1216  89.2097

 M, (1/n)           2.015    2.015    2.015    2.015    2.015    2.015    2.015    2.015
 (dLV/dLP)t      -1.00019 -1.00020 -1.00022 -1.00023 -1.00025 -1.00026 -1.00028 -1.00030
 (dLV/dLT)p        1.0052   1.0056   1.0059   1.0063   1.0067   1.0072   1.0076   1.0081
 Cp, KJ/(KG)(K)   17.5460  17.6006  17.6569  17.7150  17.7751  17.8372  17.9013  17.9675
 GAMMAs            1.3113   1.3103   1.3093   1.3083   1.3073   1.3062   1.3051   1.3040
 SON VEL,M/SEC     3264.8   3271.9   3278.9   3285.9   3292.8   3299.7   3306.6   3313.4

 TRANSPORT PROPERTIES (GASES ONLY)
   CONDUCTIVITY IN UNITS OF MILLIWATTS/(CM)(K)

 VISC,MILLIPOISE  0.33151  0.33275  0.33399  0.33523  0.33647  0.33771  0.33895  0.34020

  WITH EQUILIBRIUM REACTIONS

 Cp, KJ/(KG)(K)   17.5460  17.6006  17.6569  17.7150  17.7751  17.8372  17.9013  17.9675
 CONDUCTIVITY      8.5182   8.5916   8.6671   8.7446   8.8242   8.9062   8.9905   9.0772
 PRANDTL NUMBER    0.6829   0.6817   0.6804   0.6791   0.6778   0.6764   0.6749   0.6734

  WITH FROZEN REACTIONS

 Cp, KJ/(KG)(K)   16.9517  16.9694  16.9871  17.0046  17.0221  17.0395  17.0568  17.0740
 CONDUCTIVITY      7.9839   8.0218   8.0598   8.0978   8.1359   8.1740   8.2121   8.2503
 PRANDTL NUMBER    0.7039   0.7039   0.7039   0.7040   0.7040   0.7040   0.7040   0.7040

 MOLE FRACTIONS

 *H               0.00075  0.00081  0.00086  0.00092  0.00099  0.00106  0.00113  0.00121
 *H2              0.99925  0.99919  0.99914  0.99908  0.99901  0.99894  0.99887  0.99879

  * THERMODYNAMIC PROPERTIES FITTED TO 20000.K

 NOTE. WEIGHT FRACTION OF FUEL IN TOTAL FUELS AND OF OXIDANT IN TOTAL OXIDANTS









               THERMODYNAMIC EQUILIBRIUM PROPERTIES AT ASSIGNED

                           TEMPERATURE AND PRESSURE

 CASE =                

             REACTANT                    WT FRACTION      ENERGY      TEMP
                                          (SEE NOTE)     KJ/KG-MOL      K  
             H2                           1.0000000         0.000      0.000

 O/F=    0.00000  %FUEL=100.000000  R,EQ.RATIO= 0.000000  PHI,EQ.RATIO= 0.000000

 THERMODYNAMIC PROPERTIES

 P, BAR            3.1000   3.1000   3.1000   3.1000   3.1000   3.5000   3.5000   3.5000
 T, K             2050.00  2060.00  2070.00  2080.00  2090.00  1950.00  1960.00  1970.00
 RHO, KG/CU M    3.6640-2 3.6461-2 3.6283-2 3.6107-2 3.5932-2 4.3504-2 4.3281-2 4.3060-2
 H, KJ/KG         27264.2  27444.9  27626.3  27808.5  27991.5  25487.6  25661.9  25836.8
 U, KJ/KG         18803.5  18942.6  19082.3  19222.8  19364.1  17442.3  17575.2  17708.6
 G, KJ/KG       -155796.1-156689.6-157583.9-158479.0-159375.1-145934.2-146813.7-147694.1
 S, KJ/(KG)(K)    89.2977  89.3857  89.4735  89.5613  89.6491  87.9086  87.9978  88.0868

 M, (1/n)           2.015    2.014    2.014    2.014    2.014    2.015    2.015    2.015
 (dLV/dLP)t      -1.00032 -1.00034 -1.00037 -1.00039 -1.00042 -1.00015 -1.00016 -1.00018
 (dLV/dLT)p        1.0086   1.0091   1.0097   1.0103   1.0109   1.0043   1.0046   1.0049
 Cp, KJ/(KG)(K)   18.0360  18.1068  18.1799  18.2555  18.3336  17.4109  17.4602  17.5109
 GAMMAs            1.3029   1.3017   1.3005   1.2994   1.2981   1.3138   1.3129   1.3119
 SON VEL,M/SEC     3320.1   3326.8   3333.4   3340.0   3346.6   3251.1   3258.3   3265.5

 TRANSPORT PROPERTIES (GASES ONLY)
   CONDUCTIVITY IN UNITS OF MILLIWATTS/(CM)(K)

 VISC,MILLIPOISE  0.34144  0.34268  0.34392  0.34517  0.34641  0.32903  0.33027  0.33151

  WITH EQUILIBRIUM REACTIONS

 Cp, KJ/(KG)(K)   18.0360  18.1068  18.1799  18.2555  18.3336  17.4109  17.4602  17.5109
 CONDUCTIVITY      9.1665   9.2584   9.3531   9.4506   9.5511   8.3492   8.4169   8.4864
 PRANDTL NUMBER    0.6718   0.6702   0.6685   0.6667   0.6649   0.6861   0.6851   0.6840

  WITH FROZEN REACTIONS

 Cp, KJ/(KG)(K)   17.0912  17.1083  17.1253  17.1422  17.1591  16.9160  16.9339  16.9517
 CONDUCTIVITY      8.2886   8.3269   8.3652   8.4036   8.4421   7.9079   7.9457   7.9836
 PRANDTL NUMBER    0.7041   0.7041   0.7041   0.7041   0.7041   0.7038   0.7039   0.7039

 MOLE FRACTIONS

 *H               0.00129  0.00138  0.00147  0.00156  0.00166  0.00061  0.00066  0.00071
 *H2              0.99871  0.99862  0.99853  0.99844  0.99834  0.99939  0.99934  0.99929

  * THERMODYNAMIC PROPERTIES FITTED TO 20000.K

 NOTE. WEIGHT FRACTION OF FUEL IN TOTAL FUELS AND OF OXIDANT IN TOTAL OXIDANTS









               THERMODYNAMIC EQUILIBRIUM PROPERTIES AT ASSIGNED

                           TEMPERATURE AND PRESSURE

 CASE =                

             REACTANT                    WT FRACTION      ENERGY      TEMP
                                          (SEE NOTE)     KJ/KG-MOL      K  
             H2                           1.0000000         0.000      0.000

 O/F=    0.00000  %FUEL=100.000000  R,EQ.RATIO= 0.000000  PHI,EQ.RATIO= 0.000000

 THERMODYNAMIC PROPERTIES

 P, BAR            3.5000   3.5000   3.5000   3.5000   3.5000   3.5000   3.5000   3.5000
 T, K             1980.00  1990.00  2000.00  2010.00  2020.00  2030.00  2040.00  2050.00
 RHO, KG/CU M    4.2842-2 4.2625-2 4.2411-2 4.2199-2 4.1988-2 4.1780-2 4.1574-2 4.1369-2
 H, KJ/KG         26012.2  26188.1  26364.5  26541.5  26719.1  26897.3  27076.2  27255.6
 U, KJ/KG         17842.5  17977.0  18111.9  18247.4  18383.5  18520.1  18657.4  18795.3
 G, KJ/KG       -148575.4-149457.6-150340.7-151224.7-152109.5-152995.3-153881.9-154769.4
 S, KJ/(KG)(K)    88.1756  88.2642  88.3526  88.4409  88.5290  88.6170  88.7049  88.7927

 M, (1/n)           2.015    2.015    2.015    2.015    2.015    2.015    2.015    2.015
 (dLV/dLP)t      -1.00019 -1.00020 -1.00022 -1.00023 -1.00025 -1.00027 -1.00028 -1.00030
 (dLV/dLT)p        1.0052   1.0056   1.0059   1.0063   1.0067   1.0072   1.0076   1.0081
 Cp, KJ/(KG)(K)   17.5633  17.6173  17.6731  17.7307  17.7901  17.8514  17.9148  17.9802
 GAMMAs            1.3110   1.3100   1.3090   1.3080   1.3069   1.3059   1.3048   1.3037
 SON VEL,M/SEC     3272.6   3279.7   3286.7   3293.7   3300.6   3307.5   3314.3   3321.1

 TRANSPORT PROPERTIES (GASES ONLY)
   CONDUCTIVITY IN UNITS OF MILLIWATTS/(CM)(K)

 VISC,MILLIPOISE  0.33275  0.33398  0.33522  0.33646  0.33770  0.33894  0.34018  0.34142

  WITH EQUILIBRIUM REACTIONS

 Cp, KJ/(KG)(K)   17.5633  17.6173  17.6731  17.7307  17.7901  17.8514  17.9148  17.9802
 CONDUCTIVITY      8.5577   8.6309   8.7061   8.7833   8.8626   8.9442   9.0280   9.1143
 PRANDTL NUMBER    0.6829   0.6817   0.6805   0.6792   0.6779   0.6765   0.6750   0.6735

  WITH FROZEN REACTIONS

 Cp, KJ/(KG)(K)   16.9694  16.9870  17.0045  17.0220  17.0394  17.0567  17.0739  17.0911
 CONDUCTIVITY      8.0215   8.0594   8.0974   8.1354   8.1735   8.2116   8.2498   8.2880
 PRANDTL NUMBER    0.7039   0.7039   0.7040   0.7040   0.7040   0.7040   0.7040   0.7041

 MOLE FRACTIONS

 *H               0.00076  0.00081  0.00087  0.00093  0.00100  0.00106  0.00114  0.00121
 *H2              0.99924  0.99919  0.99913  0.99907  0.99900  0.99894  0.99886  0.99879

  * THERMODYNAMIC PROPERTIES FITTED TO 20000.K

 NOTE. WEIGHT FRACTION OF FUEL IN TOTAL FUELS AND OF OXIDANT IN TOTAL OXIDANTS









               THERMODYNAMIC EQUILIBRIUM PROPERTIES AT ASSIGNED

                           TEMPERATURE AND PRESSURE

 CASE =                

             REACTANT                    WT FRACTION      ENERGY      TEMP
                                          (SEE NOTE)     KJ/KG-MOL      K  
             H2                           1.0000000         0.000      0.000

 O/F=    0.00000  %FUEL=100.000000  R,EQ.RATIO= 0.000000  PHI,EQ.RATIO= 0.000000

 THERMODYNAMIC PROPERTIES

 P, BAR            3.5000   3.5000   3.5000   3.5000   3.9000   3.9000   3.9000   3.9000
 T, K             2060.00  2070.00  2080.00  2090.00  1950.00  1960.00  1970.00  1980.00
 RHO, KG/CU M    4.1167-2 4.0966-2 4.0767-2 4.0570-2 4.8477-2 4.8228-2 4.7982-2 4.7739-2
 H, KJ/KG         27435.8  27616.6  27798.1  27980.4  25484.0  25658.0  25832.6  26007.7
 U, KJ/KG         18933.8  19073.0  19212.9  19353.4  17438.8  17571.5  17704.6  17838.2
 G, KJ/KG       -155657.7-156547.0-157437.1-158328.1-145063.6-145938.6-146814.6-147691.4
 S, KJ/(KG)(K)    88.8803  88.9679  89.0554  89.1428  87.4603  87.5493  87.6382  87.7268

 M, (1/n)           2.015    2.014    2.014    2.014    2.015    2.015    2.015    2.015
 (dLV/dLP)t      -1.00032 -1.00035 -1.00037 -1.00039 -1.00015 -1.00016 -1.00017 -1.00018
 (dLV/dLT)p        1.0086   1.0091   1.0097   1.0102   1.0041   1.0043   1.0046   1.0049
 Cp, KJ/(KG)(K)   18.0478  18.1176  18.1898  18.2643  17.3848  17.4324  17.4814  17.5320
 GAMMAs            1.3026   1.3015   1.3003   1.2991   1.3142   1.3133   1.3124   1.3115
 SON VEL,M/SEC     3327.9   3334.5   3341.2   3347.8   3251.7   3258.9   3266.1   3273.2

 TRANSPORT PROPERTIES (GASES ONLY)
   CONDUCTIVITY IN UNITS OF MILLIWATTS/(CM)(K)

 VISC,MILLIPOISE  0.34266  0.34391  0.34515  0.34639  0.32902  0.33026  0.33150  0.33274

  WITH EQUILIBRIUM REACTIONS

 Cp, KJ/(KG)(K)   18.0478  18.1176  18.1898  18.2643  17.3848  17.4324  17.4814  17.5320
 CONDUCTIVITY      9.2030   9.2943   9.3883   9.4851   8.3257   8.3919   8.4597   8.5292
 PRANDTL NUMBER    0.6720   0.6704   0.6687   0.6670   0.6870   0.6861   0.6850   0.6839

  WITH FROZEN REACTIONS

 Cp, KJ/(KG)(K)   17.1081  17.1251  17.1421  17.1589  16.9159  16.9338  16.9516  16.9693
 CONDUCTIVITY      8.3263   8.3646   8.4029   8.4414   7.9077   7.9455   7.9833   8.0212
 PRANDTL NUMBER    0.7041   0.7041   0.7041   0.7041   0.7038   0.7039   0.7039   0.7039

 MOLE FRACTIONS

 *H               0.00129  0.00138  0.00147  0.00157  0.00058  0.00062  0.00067  0.00072
 *H2              0.99871  0.99862  0.99853  0.99843  0.99942  0.99938  0.99933  0.99928

  * THERMODYNAMIC PROPERTIES FITTED TO 20000.K

 NOTE. WEIGHT FRACTION OF FUEL IN TOTAL FUELS AND OF OXIDANT IN TOTAL OXIDANTS









               THERMODYNAMIC EQUILIBRIUM PROPERTIES AT ASSIGNED

                           TEMPERATURE AND PRESSURE

 CASE =                

             REACTANT                    WT FRACTION      ENERGY      TEMP
                                          (SEE NOTE)     KJ/KG-MOL      K  
             H2                           1.0000000         0.000      0.000

 O/F=    0.00000  %FUEL=100.000000  R,EQ.RATIO= 0.000000  PHI,EQ.RATIO= 0.000000

 THERMODYNAMIC PROPERTIES

 P, BAR            3.9000   3.9000   3.9000   3.9000   3.9000   3.9000   3.9000   3.9000
 T, K             1990.00  2000.00  2010.00  2020.00  2030.00  2040.00  2050.00  2060.00
 RHO, KG/CU M    4.7498-2 4.7259-2 4.7022-2 4.6788-2 4.6556-2 4.6326-2 4.6099-2 4.5873-2
 H, KJ/KG         26183.2  26359.4  26536.0  26713.2  26891.0  27069.4  27248.4  27428.1
 U, KJ/KG         17972.3  18106.9  18242.1  18377.8  18514.0  18650.9  18788.3  18926.4
 G, KJ/KG       -148569.1-149447.7-150327.2-151207.5-152088.8-152970.9-153853.9-154737.7
 S, KJ/(KG)(K)    87.8152  87.9035  87.9916  88.0796  88.1674  88.2550  88.3426  88.4300

 M, (1/n)           2.015    2.015    2.015    2.015    2.015    2.015    2.015    2.015
 (dLV/dLP)t      -1.00019 -1.00021 -1.00022 -1.00024 -1.00025 -1.00027 -1.00029 -1.00031
 (dLV/dLT)p        1.0053   1.0056   1.0060   1.0064   1.0068   1.0072   1.0077   1.0081
 Cp, KJ/(KG)(K)   17.5841  17.6378  17.6933  17.7505  17.8095  17.8704  17.9333  17.9982
 GAMMAs            1.3105   1.3095   1.3086   1.3075   1.3065   1.3055   1.3044   1.3033
 SON VEL,M/SEC     3280.3   3287.4   3294.4   3301.4   3308.3   3315.1   3322.0   3328.8

 TRANSPORT PROPERTIES (GASES ONLY)
   CONDUCTIVITY IN UNITS OF MILLIWATTS/(CM)(K)

 VISC,MILLIPOISE  0.33398  0.33522  0.33645  0.33769  0.33893  0.34017  0.34141  0.34265

  WITH EQUILIBRIUM REACTIONS

 Cp, KJ/(KG)(K)   17.5841  17.6378  17.6933  17.7505  17.8095  17.8704  17.9333  17.9982
 CONDUCTIVITY      8.6005   8.6737   8.7488   8.8260   8.9052   8.9866   9.0703   9.1563
 PRANDTL NUMBER    0.6828   0.6817   0.6804   0.6792   0.6778   0.6765   0.6750   0.6735

  WITH FROZEN REACTIONS

 Cp, KJ/(KG)(K)   16.9869  17.0045  17.0219  17.0393  17.0566  17.0738  17.0910  17.1080
 CONDUCTIVITY      8.0591   8.0971   8.1351   8.1731   8.2112   8.2493   8.2875   8.3258
 PRANDTL NUMBER    0.7040   0.7040   0.7040   0.7040   0.7040   0.7041   0.7041   0.7041

 MOLE FRACTIONS

 *H               0.00077  0.00082  0.00088  0.00094  0.00101  0.00108  0.00115  0.00123
 *H2              0.99923  0.99918  0.99912  0.99906  0.99899  0.99892  0.99885  0.99877

  * THERMODYNAMIC PROPERTIES FITTED TO 20000.K

 NOTE. WEIGHT FRACTION OF FUEL IN TOTAL FUELS AND OF OXIDANT IN TOTAL OXIDANTS









               THERMODYNAMIC EQUILIBRIUM PROPERTIES AT ASSIGNED

                           TEMPERATURE AND PRESSURE

 CASE =                

             REACTANT                    WT FRACTION      ENERGY      TEMP
                                          (SEE NOTE)     KJ/KG-MOL      K  
             H2                           1.0000000         0.000      0.000

 O/F=    0.00000  %FUEL=100.000000  R,EQ.RATIO= 0.000000  PHI,EQ.RATIO= 0.000000

 THERMODYNAMIC PROPERTIES

 P, BAR            3.9000   3.9000   3.9000   4.4000   4.4000   4.4000   4.4000   4.4000
 T, K             2070.00  2080.00  2090.00  1950.00  1960.00  1970.00  1980.00  1990.00
 RHO, KG/CU M    4.5650-2 4.5428-2 4.5209-2 5.4692-2 5.4412-2 5.4135-2 5.3860-2 5.3588-2
 H, KJ/KG         27608.4  27789.4  27971.1  25480.1  25653.9  25828.2  26002.9  26178.2
 U, KJ/KG         19065.1  19204.4  19344.5  17435.1  17567.5  17700.3  17833.6  17967.4
 G, KJ/KG       -155622.5-156508.1-157394.5-144093.1-144963.2-145834.1-146705.9-147578.6
 S, KJ/(KG)(K)    88.5173  88.6046  88.6917  86.9606  87.0495  87.1382  87.2267  87.3150

 M, (1/n)           2.015    2.014    2.014    2.015    2.015    2.015    2.015    2.015
 (dLV/dLP)t      -1.00033 -1.00035 -1.00037 -1.00014 -1.00015 -1.00016 -1.00017 -1.00018
 (dLV/dLT)p        1.0086   1.0092   1.0097   1.0038   1.0041   1.0044   1.0047   1.0050
 Cp, KJ/(KG)(K)   18.0652  18.1344  18.2059  17.3573  17.4031  17.4503  17.4989  17.5490
 GAMMAs            1.3022   1.3011   1.3000   1.3147   1.3138   1.3129   1.3120   1.3111
 SON VEL,M/SEC     3335.5   3342.2   3348.8   3252.2   3259.5   3266.7   3273.9   3281.0

 TRANSPORT PROPERTIES (GASES ONLY)
   CONDUCTIVITY IN UNITS OF MILLIWATTS/(CM)(K)

 VISC,MILLIPOISE  0.34389  0.34513  0.34638  0.32902  0.33026  0.33149  0.33273  0.33397

  WITH EQUILIBRIUM REACTIONS

 Cp, KJ/(KG)(K)   18.0652  18.1344  18.2059  17.3573  17.4031  17.4503  17.4989  17.5490
 CONDUCTIVITY      9.2448   9.3359   9.4296   8.3010   8.3655   8.4315   8.4992   8.5685
 PRANDTL NUMBER    0.6720   0.6704   0.6688   0.6880   0.6870   0.6861   0.6851   0.6840

  WITH FROZEN REACTIONS

 Cp, KJ/(KG)(K)   17.1250  17.1419  17.1588  16.9159  16.9337  16.9515  16.9692  16.9868
 CONDUCTIVITY      8.3640   8.4024   8.4407   7.9075   7.9452   7.9831   8.0209   8.0588
 PRANDTL NUMBER    0.7041   0.7041   0.7041   0.7038   0.7039   0.7039   0.7039   0.7040

 MOLE FRACTIONS

 *H               0.00131  0.00139  0.00148  0.00055  0.00059  0.00063  0.00068  0.00072
 *H2              0.99869  0.99861  0.99852  0.99945  0.99941  0.99937  0.99932  0.99928

  * THERMODYNAMIC PROPERTIES FITTED TO 20000.K

 NOTE. WEIGHT FRACTION OF FUEL IN TOTAL FUELS AND OF OXIDANT IN TOTAL OXIDANTS









               THERMODYNAMIC EQUILIBRIUM PROPERTIES AT ASSIGNED

                           TEMPERATURE AND PRESSURE

 CASE =                

             REACTANT                    WT FRACTION      ENERGY      TEMP
                                          (SEE NOTE)     KJ/KG-MOL      K  
             H2                           1.0000000         0.000      0.000

 O/F=    0.00000  %FUEL=100.000000  R,EQ.RATIO= 0.000000  PHI,EQ.RATIO= 0.000000

 THERMODYNAMIC PROPERTIES

 P, BAR            4.4000   4.4000   4.4000   4.4000   4.4000   4.4000   4.4000   4.4000
 T, K             2000.00  2010.00  2020.00  2030.00  2040.00  2050.00  2060.00  2070.00
 RHO, KG/CU M    5.3319-2 5.3052-2 5.2788-2 5.2526-2 5.2267-2 5.2011-2 5.1756-2 5.1504-2
 H, KJ/KG         26353.9  26530.2  26707.0  26884.4  27062.3  27240.8  27420.0  27599.8
 U, KJ/KG         18101.7  18236.5  18371.8  18507.6  18644.1  18781.0  18918.6  19056.8
 G, KJ/KG       -148452.2-149326.7-150202.0-151078.3-151955.4-152833.3-153712.2-154591.9
 S, KJ/(KG)(K)    87.4031  87.4910  87.5787  87.6663  87.7538  87.8411  87.9282  88.0153

 M, (1/n)           2.015    2.015    2.015    2.015    2.015    2.015    2.015    2.015
 (dLV/dLP)t      -1.00019 -1.00021 -1.00022 -1.00024 -1.00025 -1.00027 -1.00029 -1.00031
 (dLV/dLT)p        1.0053   1.0056   1.0060   1.0064   1.0068   1.0072   1.0077   1.0081
 Cp, KJ/(KG)(K)   17.6007  17.6539  17.7087  17.7653  17.8237  17.8839  17.9460  18.0101
 GAMMAs            1.3101   1.3092   1.3082   1.3072   1.3062   1.3052   1.3041   1.3031
 SON VEL,M/SEC     3288.1   3295.1   3302.1   3309.1   3316.0   3322.9   3329.7   3336.5

 TRANSPORT PROPERTIES (GASES ONLY)
   CONDUCTIVITY IN UNITS OF MILLIWATTS/(CM)(K)

 VISC,MILLIPOISE  0.33521  0.33644  0.33768  0.33892  0.34016  0.34140  0.34264  0.34388

  WITH EQUILIBRIUM REACTIONS

 Cp, KJ/(KG)(K)   17.6007  17.6539  17.7087  17.7653  17.8237  17.8839  17.9460  18.0101
 CONDUCTIVITY      8.6396   8.7125   8.7874   8.8642   8.9430   9.0240   9.1072   9.1927
 PRANDTL NUMBER    0.6829   0.6817   0.6805   0.6793   0.6779   0.6766   0.6752   0.6737

  WITH FROZEN REACTIONS

 Cp, KJ/(KG)(K)   17.0044  17.0218  17.0392  17.0565  17.0737  17.0908  17.1079  17.1249
 CONDUCTIVITY      8.0967   8.1347   8.1727   8.2108   8.2489   8.2870   8.3252   8.3635
 PRANDTL NUMBER    0.7040   0.7040   0.7040   0.7041   0.7041   0.7041   0.7041   0.7041

 MOLE FRACTIONS

 *H               0.00078  0.00083  0.00089  0.00095  0.00101  0.00108  0.00116  0.00123
 *H2              0.99922  0.99917  0.99911  0.99905  0.99899  0.99892  0.99884  0.99877

  * THERMODYNAMIC PROPERTIES FITTED TO 20000.K

 NOTE. WEIGHT FRACTION OF FUEL IN TOTAL FUELS AND OF OXIDANT IN TOTAL OXIDANTS









               THERMODYNAMIC EQUILIBRIUM PROPERTIES AT ASSIGNED

                           TEMPERATURE AND PRESSURE

 CASE =                

             REACTANT                    WT FRACTION      ENERGY      TEMP
                                          (SEE NOTE)     KJ/KG-MOL      K  
             H2                           1.0000000         0.000      0.000

 O/F=    0.00000  %FUEL=100.000000  R,EQ.RATIO= 0.000000  PHI,EQ.RATIO= 0.000000

 THERMODYNAMIC PROPERTIES

 P, BAR            4.4000   4.4000   4.9000   4.9000   4.9000   4.9000   4.9000   4.9000
 T, K             2080.00  2090.00  1950.00  1960.00  1970.00  1980.00  1990.00  2000.00
 RHO, KG/CU M    5.1255-2 5.1007-2 6.0908-2 6.0596-2 6.0288-2 5.9982-2 5.9679-2 5.9379-2
 H, KJ/KG         27780.2  27961.3  25476.9  25650.5  25824.5  25998.9  26173.9  26349.3
 U, KJ/KG         19195.6  19335.1  17432.0  17564.2  17696.8  17829.8  17963.3  18097.3
 G, KJ/KG       -155472.5-156354.0-143227.3-144092.8-144959.3-145826.7-146694.9-147564.0
 S, KJ/(KG)(K)    88.1023  88.1891  86.5150  86.6037  86.6923  86.7806  86.8687  86.9567

 M, (1/n)           2.015    2.014    2.015    2.015    2.015    2.015    2.015    2.015
 (dLV/dLP)t      -1.00033 -1.00035 -1.00013 -1.00014 -1.00015 -1.00016 -1.00017 -1.00018
 (dLV/dLT)p        1.0086   1.0091   1.0036   1.0039   1.0041   1.0044   1.0047   1.0050
 Cp, KJ/(KG)(K)   18.0762  18.1445  17.3341  17.3785  17.4241  17.4711  17.5195  17.5693
 GAMMAs            1.3020   1.3009   1.3151   1.3142   1.3134   1.3125   1.3116   1.3107
 SON VEL,M/SEC     3343.2   3349.9   3252.7   3260.0   3267.2   3274.4   3281.6   3288.7

 TRANSPORT PROPERTIES (GASES ONLY)
   CONDUCTIVITY IN UNITS OF MILLIWATTS/(CM)(K)

 VISC,MILLIPOISE  0.34512  0.34636  0.32901  0.33025  0.33149  0.33272  0.33396  0.33520

  WITH EQUILIBRIUM REACTIONS

 Cp, KJ/(KG)(K)   18.0762  18.1445  17.3341  17.3785  17.4241  17.4711  17.5195  17.5693
 CONDUCTIVITY      9.2807   9.3711   8.2802   8.3433   8.4078   8.4739   8.5416   8.6109
 PRANDTL NUMBER    0.6722   0.6706   0.6888   0.6879   0.6870   0.6860   0.6850   0.6839

  WITH FROZEN REACTIONS

 Cp, KJ/(KG)(K)   17.1418  17.1586  16.9158  16.9337  16.9514  16.9691  16.9868  17.0043
 CONDUCTIVITY      8.4017   8.4401   7.9073   7.9450   7.9828   8.0207   8.0585   8.0964
 PRANDTL NUMBER    0.7041   0.7041   0.7038   0.7039   0.7039   0.7039   0.7040   0.7040

 MOLE FRACTIONS

 *H               0.00131  0.00140  0.00052  0.00056  0.00060  0.00064  0.00069  0.00074
 *H2              0.99869  0.99860  0.99948  0.99944  0.99940  0.99936  0.99931  0.99926

  * THERMODYNAMIC PROPERTIES FITTED TO 20000.K

 NOTE. WEIGHT FRACTION OF FUEL IN TOTAL FUELS AND OF OXIDANT IN TOTAL OXIDANTS









               THERMODYNAMIC EQUILIBRIUM PROPERTIES AT ASSIGNED

                           TEMPERATURE AND PRESSURE

 CASE =                

             REACTANT                    WT FRACTION      ENERGY      TEMP
                                          (SEE NOTE)     KJ/KG-MOL      K  
             H2                           1.0000000         0.000      0.000

 O/F=    0.00000  %FUEL=100.000000  R,EQ.RATIO= 0.000000  PHI,EQ.RATIO= 0.000000

 THERMODYNAMIC PROPERTIES

 P, BAR            4.9000   4.9000   4.9000   4.9000   4.9000   4.9000   4.9000   4.9000
 T, K             2010.00  2020.00  2030.00  2040.00  2050.00  2060.00  2070.00  2080.00
 RHO, KG/CU M    5.9082-2 5.8788-2 5.8497-2 5.8208-2 5.7923-2 5.7639-2 5.7359-2 5.7081-2
 H, KJ/KG         26525.3  26701.8  26878.8  27056.3  27234.5  27413.2  27592.5  27772.5
 U, KJ/KG         18231.8  18366.7  18502.2  18638.3  18774.9  18912.0  19049.8  19188.1
 G, KJ/KG       -148434.0-149304.9-150176.7-151049.3-151922.8-152797.2-153672.4-154548.5
 S, KJ/(KG)(K)    87.0444  87.1320  87.2194  87.3067  87.3938  87.4808  87.5676  87.6543

 M, (1/n)           2.015    2.015    2.015    2.015    2.015    2.015    2.015    2.015
 (dLV/dLP)t      -1.00020 -1.00021 -1.00022 -1.00024 -1.00026 -1.00027 -1.00029 -1.00031
 (dLV/dLT)p        1.0053   1.0057   1.0061   1.0064   1.0068   1.0073   1.0077   1.0082
 Cp, KJ/(KG)(K)   17.6207  17.6736  17.7281  17.7843  17.8422  17.9020  17.9636  18.0271
 GAMMAs            1.3097   1.3088   1.3078   1.3068   1.3058   1.3048   1.3038   1.3027
 SON VEL,M/SEC     3295.8   3302.8   3309.8   3316.8   3323.7   3330.5   3337.3   3344.1

 TRANSPORT PROPERTIES (GASES ONLY)
   CONDUCTIVITY IN UNITS OF MILLIWATTS/(CM)(K)

 VISC,MILLIPOISE  0.33644  0.33767  0.33891  0.34015  0.34139  0.34263  0.34387  0.34510

  WITH EQUILIBRIUM REACTIONS

 Cp, KJ/(KG)(K)   17.6207  17.6736  17.7281  17.7843  17.8422  17.9020  17.9636  18.0271
 CONDUCTIVITY      8.6820   8.7548   8.8296   8.9063   8.9850   9.0658   9.1488   9.2341
 PRANDTL NUMBER    0.6828   0.6817   0.6805   0.6792   0.6779   0.6766   0.6752   0.6737

  WITH FROZEN REACTIONS

 Cp, KJ/(KG)(K)   17.0217  17.0391  17.0564  17.0736  17.0907  17.1078  17.1248  17.1417
 CONDUCTIVITY      8.1344   8.1724   8.2104   8.2485   8.2866   8.3248   8.3630   8.4012
 PRANDTL NUMBER    0.7040   0.7040   0.7041   0.7041   0.7041   0.7041   0.7041   0.7041

 MOLE FRACTIONS

 *H               0.00079  0.00084  0.00090  0.00096  0.00103  0.00109  0.00117  0.00124
 *H2              0.99921  0.99916  0.99910  0.99904  0.99897  0.99891  0.99883  0.99876

  * THERMODYNAMIC PROPERTIES FITTED TO 20000.K

 NOTE. WEIGHT FRACTION OF FUEL IN TOTAL FUELS AND OF OXIDANT IN TOTAL OXIDANTS









               THERMODYNAMIC EQUILIBRIUM PROPERTIES AT ASSIGNED

                           TEMPERATURE AND PRESSURE

 CASE =                

             REACTANT                    WT FRACTION      ENERGY      TEMP
                                          (SEE NOTE)     KJ/KG-MOL      K  
             H2                           1.0000000         0.000      0.000

 O/F=    0.00000  %FUEL=100.000000  R,EQ.RATIO= 0.000000  PHI,EQ.RATIO= 0.000000

 THERMODYNAMIC PROPERTIES

 P, BAR            4.9000   5.4000   5.4000   5.4000   5.4000   5.4000   5.4000   5.4000
 T, K             2090.00  1950.00  1960.00  1970.00  1980.00  1990.00  2000.00  2010.00
 RHO, KG/CU M    5.6805-2 6.7124-2 6.6781-2 6.6440-2 6.6103-2 6.5770-2 6.5439-2 6.5112-2
 H, KJ/KG         27953.1  25474.1  25647.5  25821.3  25995.5  26170.2  26345.4  26521.1
 U, KJ/KG         19327.1  17429.4  17561.3  17693.7  17826.5  17959.8  18093.5  18227.7
 G, KJ/KG       -155425.5-142445.6-143307.1-144169.6-145032.9-145897.1-146762.2-147628.2
 S, KJ/(KG)(K)    87.7409  86.1127  86.2013  86.2898  86.3780  86.4660  86.5538  86.6414

 M, (1/n)           2.015    2.015    2.015    2.015    2.015    2.015    2.015    2.015
 (dLV/dLP)t      -1.00033 -1.00012 -1.00013 -1.00014 -1.00015 -1.00016 -1.00018 -1.00019
 (dLV/dLT)p        1.0087   1.0035   1.0037   1.0039   1.0042   1.0045   1.0048   1.0051
 Cp, KJ/(KG)(K)   18.0927  17.3142  17.3573  17.4017  17.4473  17.4942  17.5425  17.5922
 GAMMAs            1.3017   1.3154   1.3146   1.3137   1.3129   1.3120   1.3111   1.3102
 SON VEL,M/SEC     3350.8   3253.1   3260.4   3267.7   3274.9   3282.1   3289.2   3296.3

 TRANSPORT PROPERTIES (GASES ONLY)
   CONDUCTIVITY IN UNITS OF MILLIWATTS/(CM)(K)

 VISC,MILLIPOISE  0.34634  0.32901  0.33024  0.33148  0.33272  0.33396  0.33519  0.33643

  WITH EQUILIBRIUM REACTIONS

 Cp, KJ/(KG)(K)   18.0927  17.3142  17.3573  17.4017  17.4473  17.4942  17.5425  17.5922
 CONDUCTIVITY      9.3218   8.2623   8.3242   8.3875   8.4522   8.5184   8.5863   8.6557
 PRANDTL NUMBER    0.6722   0.6895   0.6886   0.6877   0.6868   0.6858   0.6848   0.6838

  WITH FROZEN REACTIONS

 Cp, KJ/(KG)(K)   17.1585  16.9158  16.9336  16.9514  16.9691  16.9867  17.0042  17.0217
 CONDUCTIVITY      8.4395   7.9071   7.9448   7.9826   8.0204   8.0583   8.0962   8.1341
 PRANDTL NUMBER    0.7042   0.7039   0.7039   0.7039   0.7039   0.7040   0.7040   0.7040

 MOLE FRACTIONS

 *H               0.00132  0.00049  0.00053  0.00057  0.00061  0.00065  0.00070  0.00075
 *H2              0.99868  0.99951  0.99947  0.99943  0.99939  0.99935  0.99930  0.99925

  * THERMODYNAMIC PROPERTIES FITTED TO 20000.K

 NOTE. WEIGHT FRACTION OF FUEL IN TOTAL FUELS AND OF OXIDANT IN TOTAL OXIDANTS









               THERMODYNAMIC EQUILIBRIUM PROPERTIES AT ASSIGNED

                           TEMPERATURE AND PRESSURE

 CASE =                

             REACTANT                    WT FRACTION      ENERGY      TEMP
                                          (SEE NOTE)     KJ/KG-MOL      K  
             H2                           1.0000000         0.000      0.000

 O/F=    0.00000  %FUEL=100.000000  R,EQ.RATIO= 0.000000  PHI,EQ.RATIO= 0.000000

 THERMODYNAMIC PROPERTIES

 P, BAR            5.4000   5.4000   5.4000   5.4000   5.4000   5.4000   5.4000   5.4000
 T, K             2020.00  2030.00  2040.00  2050.00  2060.00  2070.00  2080.00  2090.00
 RHO, KG/CU M    6.4788-2 6.4467-2 6.4149-2 6.3835-2 6.3523-2 6.3214-2 6.2907-2 6.2604-2
 H, KJ/KG         26697.3  26874.0  27051.2  27229.0  27407.3  27586.3  27765.8  27946.0
 U, KJ/KG         18362.4  18497.6  18633.3  18769.6  18906.4  19043.8  19181.7  19320.3
 G, KJ/KG       -148495.1-149362.8-150231.4-151100.9-151971.2-152842.4-153714.5-154587.4
 S, KJ/(KG)(K)    86.7289  86.8161  86.9032  86.9902  87.0770  87.1636  87.2501  87.3365

 M, (1/n)           2.015    2.015    2.015    2.015    2.015    2.015    2.015    2.015
 (dLV/dLP)t      -1.00020 -1.00021 -1.00023 -1.00024 -1.00026 -1.00028 -1.00030 -1.00032
 (dLV/dLT)p        1.0054   1.0058   1.0061   1.0065   1.0069   1.0073   1.0078   1.0082
 Cp, KJ/(KG)(K)   17.6434  17.6962  17.7505  17.8065  17.8642  17.9237  17.9850  18.0483
 GAMMAs            1.3093   1.3083   1.3074   1.3064   1.3054   1.3044   1.3034   1.3023
 SON VEL,M/SEC     3303.4   3310.4   3317.4   3324.3   3331.2   3338.1   3344.9   3351.6

 TRANSPORT PROPERTIES (GASES ONLY)
   CONDUCTIVITY IN UNITS OF MILLIWATTS/(CM)(K)

 VISC,MILLIPOISE  0.33767  0.33890  0.34014  0.34138  0.34262  0.34386  0.34509  0.34633

  WITH EQUILIBRIUM REACTIONS

 Cp, KJ/(KG)(K)   17.6434  17.6962  17.7505  17.8065  17.8642  17.9237  17.9850  18.0483
 CONDUCTIVITY      8.7269   8.7999   8.8747   8.9515   9.0303   9.1112   9.1942   9.2795
 PRANDTL NUMBER    0.6827   0.6815   0.6803   0.6791   0.6778   0.6764   0.6750   0.6736

  WITH FROZEN REACTIONS

 Cp, KJ/(KG)(K)   17.0390  17.0563  17.0735  17.0907  17.1077  17.1247  17.1416  17.1584
 CONDUCTIVITY      8.1721   8.2101   8.2481   8.2862   8.3244   8.3626   8.4008   8.4391
 PRANDTL NUMBER    0.7040   0.7041   0.7041   0.7041   0.7041   0.7041   0.7042   0.7042

 MOLE FRACTIONS

 *H               0.00080  0.00086  0.00092  0.00098  0.00104  0.00111  0.00118  0.00126
 *H2              0.99920  0.99914  0.99908  0.99902  0.99896  0.99889  0.99882  0.99874

  * THERMODYNAMIC PROPERTIES FITTED TO 20000.K

 NOTE. WEIGHT FRACTION OF FUEL IN TOTAL FUELS AND OF OXIDANT IN TOTAL OXIDANTS









               THERMODYNAMIC EQUILIBRIUM PROPERTIES AT ASSIGNED

                           TEMPERATURE AND PRESSURE

 CASE =                

             REACTANT                    WT FRACTION      ENERGY      TEMP
                                          (SEE NOTE)     KJ/KG-MOL      K  
             H2                           1.0000000         0.000      0.000

 O/F=    0.00000  %FUEL=100.000000  R,EQ.RATIO= 0.000000  PHI,EQ.RATIO= 0.000000

 THERMODYNAMIC PROPERTIES

 P, BAR            6.0000   6.0000   6.0000   6.0000   6.0000   6.0000   6.0000   6.0000
 T, K             1950.00  1960.00  1970.00  1980.00  1990.00  2000.00  2010.00  2020.00
 RHO, KG/CU M    7.4584-2 7.4202-2 7.3824-2 7.3449-2 7.3079-2 7.2712-2 7.2348-2 7.1988-2
 H, KJ/KG         25471.3  25644.4  25818.0  25992.0  26166.4  26341.4  26516.7  26692.6
 U, KJ/KG         17426.6  17558.4  17690.5  17823.1  17956.1  18089.6  18223.5  18358.0
 G, KJ/KG       -141598.0-142455.2-143313.3-144172.2-145032.1-145892.8-146754.4-147616.9
 S, KJ/(KG)(K)    85.6766  85.7651  85.8534  85.9415  86.0294  86.1171  86.2046  86.2919

 M, (1/n)           2.015    2.015    2.015    2.015    2.015    2.015    2.015    2.015
 (dLV/dLP)t      -1.00012 -1.00013 -1.00014 -1.00014 -1.00016 -1.00017 -1.00018 -1.00019
 (dLV/dLT)p        1.0033   1.0035   1.0037   1.0040   1.0043   1.0045   1.0048   1.0051
 Cp, KJ/(KG)(K)   17.2937  17.3355  17.3785  17.4227  17.4681  17.5148  17.5629  17.6123
 GAMMAs            1.3158   1.3150   1.3141   1.3133   1.3124   1.3115   1.3107   1.3098
 SON VEL,M/SEC     3253.5   3260.8   3268.1   3275.4   3282.6   3289.8   3296.9   3304.0

 TRANSPORT PROPERTIES (GASES ONLY)
   CONDUCTIVITY IN UNITS OF MILLIWATTS/(CM)(K)

 VISC,MILLIPOISE  0.32900  0.33024  0.33148  0.33271  0.33395  0.33519  0.33642  0.33766

  WITH EQUILIBRIUM REACTIONS

 Cp, KJ/(KG)(K)   17.2937  17.3355  17.3785  17.4227  17.4681  17.5148  17.5629  17.6123
 CONDUCTIVITY      8.2439   8.3045   8.3665   8.4298   8.4946   8.5609   8.6287   8.6982
 PRANDTL NUMBER    0.6902   0.6894   0.6885   0.6877   0.6867   0.6858   0.6848   0.6837

  WITH FROZEN REACTIONS

 Cp, KJ/(KG)(K)   16.9157  16.9336  16.9513  16.9690  16.9866  17.0042  17.0216  17.0390
 CONDUCTIVITY      7.9069   7.9446   7.9824   8.0202   8.0580   8.0959   8.1338   8.1718
 PRANDTL NUMBER    0.7039   0.7039   0.7039   0.7040   0.7040   0.7040   0.7040   0.7041

 MOLE FRACTIONS

 *H               0.00047  0.00050  0.00054  0.00058  0.00062  0.00066  0.00071  0.00076
 *H2              0.99953  0.99950  0.99946  0.99942  0.99938  0.99934  0.99929  0.99924

  * THERMODYNAMIC PROPERTIES FITTED TO 20000.K

 NOTE. WEIGHT FRACTION OF FUEL IN TOTAL FUELS AND OF OXIDANT IN TOTAL OXIDANTS









               THERMODYNAMIC EQUILIBRIUM PROPERTIES AT ASSIGNED

                           TEMPERATURE AND PRESSURE

 CASE =                

             REACTANT                    WT FRACTION      ENERGY      TEMP
                                          (SEE NOTE)     KJ/KG-MOL      K  
             H2                           1.0000000         0.000      0.000

 O/F=    0.00000  %FUEL=100.000000  R,EQ.RATIO= 0.000000  PHI,EQ.RATIO= 0.000000

 THERMODYNAMIC PROPERTIES

 P, BAR            6.0000   6.0000   6.0000   6.0000   6.0000   6.0000   6.0000   6.7000
 T, K             2030.00  2040.00  2050.00  2060.00  2070.00  2080.00  2090.00  1950.00
 RHO, KG/CU M    7.1632-2 7.1279-2 7.0929-2 7.0583-2 7.0239-2 6.9899-2 6.9562-2 8.3286-2
 H, KJ/KG         26869.0  27045.9  27223.3  27401.3  27579.8  27759.0  27938.7  25468.5
 U, KJ/KG         18492.8  18628.2  18764.2  18900.6  19037.6  19175.2  19313.3  17423.9
 G, KJ/KG       -148480.3-149344.5-150209.6-151075.6-151942.4-152810.1-153678.6-140710.3
 S, KJ/(KG)(K)    86.3790  86.4659  86.5526  86.6392  86.7257  86.8120  86.8982  85.2199

 M, (1/n)           2.015    2.015    2.015    2.015    2.015    2.015    2.015    2.015
 (dLV/dLP)t      -1.00020 -1.00022 -1.00023 -1.00025 -1.00026 -1.00028 -1.00030 -1.00011
 (dLV/dLT)p        1.0055   1.0058   1.0062   1.0066   1.0070   1.0074   1.0078   1.0031
 Cp, KJ/(KG)(K)   17.6632  17.7157  17.7697  17.8253  17.8826  17.9417  18.0025  17.2734
 GAMMAs            1.3088   1.3079   1.3070   1.3060   1.3050   1.3040   1.3030   1.3161
 SON VEL,M/SEC     3311.0   3318.1   3325.0   3331.9   3338.8   3345.7   3352.5   3253.9

 TRANSPORT PROPERTIES (GASES ONLY)
   CONDUCTIVITY IN UNITS OF MILLIWATTS/(CM)(K)

 VISC,MILLIPOISE  0.33890  0.34013  0.34137  0.34261  0.34384  0.34508  0.34632  0.32900

  WITH EQUILIBRIUM REACTIONS

 Cp, KJ/(KG)(K)   17.6632  17.7157  17.7697  17.8253  17.8826  17.9417  18.0025  17.2734
 CONDUCTIVITY      8.7693   8.8423   8.9170   8.9937   9.0723   9.1530   9.2359   8.2257
 PRANDTL NUMBER    0.6826   0.6815   0.6803   0.6790   0.6778   0.6764   0.6750   0.6909

  WITH FROZEN REACTIONS

 Cp, KJ/(KG)(K)   17.0562  17.0734  17.0906  17.1076  17.1246  17.1415  17.1583  16.9157
 CONDUCTIVITY      8.2098   8.2478   8.2859   8.3240   8.3621   8.4003   8.4386   7.9067
 PRANDTL NUMBER    0.7041   0.7041   0.7041   0.7041   0.7041   0.7042   0.7042   0.7039

 MOLE FRACTIONS

 *H               0.00081  0.00087  0.00093  0.00099  0.00105  0.00112  0.00120  0.00044
 *H2              0.99919  0.99913  0.99907  0.99901  0.99895  0.99888  0.99880  0.99956

  * THERMODYNAMIC PROPERTIES FITTED TO 20000.K

 NOTE. WEIGHT FRACTION OF FUEL IN TOTAL FUELS AND OF OXIDANT IN TOTAL OXIDANTS









               THERMODYNAMIC EQUILIBRIUM PROPERTIES AT ASSIGNED

                           TEMPERATURE AND PRESSURE

 CASE =                

             REACTANT                    WT FRACTION      ENERGY      TEMP
                                          (SEE NOTE)     KJ/KG-MOL      K  
             H2                           1.0000000         0.000      0.000

 O/F=    0.00000  %FUEL=100.000000  R,EQ.RATIO= 0.000000  PHI,EQ.RATIO= 0.000000

 THERMODYNAMIC PROPERTIES

 P, BAR            6.7000   6.7000   6.7000   6.7000   6.7000   6.7000   6.7000   6.7000
 T, K             1960.00  1970.00  1980.00  1990.00  2000.00  2010.00  2020.00  2030.00
 RHO, KG/CU M    8.2860-2 8.2438-2 8.2020-2 8.1606-2 8.1196-2 8.0791-2 8.0389-2 7.9991-2
 H, KJ/KG         25641.4  25814.7  25988.5  26162.7  26337.3  26512.4  26688.0  26864.1
 U, KJ/KG         17555.4  17687.4  17819.7  17952.5  18085.7  18219.4  18353.5  18488.1
 G, KJ/KG       -141562.9-142416.4-143270.8-144126.1-144982.3-145839.3-146697.2-147556.0
 S, KJ/(KG)(K)    85.3083  85.3965  85.4845  85.5723  85.6598  85.7471  85.8343  85.9212

 M, (1/n)           2.015    2.015    2.015    2.015    2.015    2.015    2.015    2.015
 (dLV/dLP)t      -1.00012 -1.00013 -1.00014 -1.00015 -1.00016 -1.00017 -1.00018 -1.00019
 (dLV/dLT)p        1.0033   1.0035   1.0038   1.0040   1.0043   1.0046   1.0049   1.0052
 Cp, KJ/(KG)(K)   17.3139  17.3555  17.3983  17.4422  17.4873  17.5337  17.5815  17.6306
 GAMMAs            1.3153   1.3145   1.3137   1.3129   1.3120   1.3111   1.3103   1.3094
 SON VEL,M/SEC     3261.3   3268.6   3275.9   3283.1   3290.3   3297.5   3304.6   3311.7

 TRANSPORT PROPERTIES (GASES ONLY)
   CONDUCTIVITY IN UNITS OF MILLIWATTS/(CM)(K)

 VISC,MILLIPOISE  0.33024  0.33147  0.33271  0.33394  0.33518  0.33642  0.33765  0.33889

  WITH EQUILIBRIUM REACTIONS

 Cp, KJ/(KG)(K)   17.3139  17.3555  17.3983  17.4422  17.4873  17.5337  17.5815  17.6306
 CONDUCTIVITY      8.2850   8.3457   8.4076   8.4709   8.5356   8.6019   8.6696   8.7390
 PRANDTL NUMBER    0.6901   0.6893   0.6885   0.6876   0.6867   0.6857   0.6847   0.6837

  WITH FROZEN REACTIONS

 Cp, KJ/(KG)(K)   16.9335  16.9513  16.9690  16.9866  17.0041  17.0215  17.0389  17.0562
 CONDUCTIVITY      7.9444   7.9822   8.0200   8.0578   8.0957   8.1336   8.1715   8.2094
 PRANDTL NUMBER    0.7039   0.7039   0.7040   0.7040   0.7040   0.7040   0.7041   0.7041

 MOLE FRACTIONS

 *H               0.00048  0.00051  0.00055  0.00059  0.00063  0.00067  0.00072  0.00077
 *H2              0.99952  0.99949  0.99945  0.99941  0.99937  0.99933  0.99928  0.99923

  * THERMODYNAMIC PROPERTIES FITTED TO 20000.K

 NOTE. WEIGHT FRACTION OF FUEL IN TOTAL FUELS AND OF OXIDANT IN TOTAL OXIDANTS









               THERMODYNAMIC EQUILIBRIUM PROPERTIES AT ASSIGNED

                           TEMPERATURE AND PRESSURE

 CASE =                

             REACTANT                    WT FRACTION      ENERGY      TEMP
                                          (SEE NOTE)     KJ/KG-MOL      K  
             H2                           1.0000000         0.000      0.000

 O/F=    0.00000  %FUEL=100.000000  R,EQ.RATIO= 0.000000  PHI,EQ.RATIO= 0.000000

 THERMODYNAMIC PROPERTIES

 P, BAR            6.7000   6.7000   6.7000   6.7000   6.7000   6.7000   7.4000   7.4000
 T, K             2040.00  2050.00  2060.00  2070.00  2080.00  2090.00  1950.00  1960.00
 RHO, KG/CU M    7.9597-2 7.9206-2 7.8819-2 7.8436-2 7.8056-2 7.7680-2 9.1988-2 9.1518-2
 H, KJ/KG         27040.6  27217.7  27395.3  27573.4  27752.2  27931.4  25466.0  25638.8
 U, KJ/KG         18623.2  18758.8  18894.8  19031.5  19168.6  19306.3  17421.5  17552.9
 G, KJ/KG       -148415.6-149276.2-150137.5-150999.8-151862.9-152726.8-139910.9-140759.4
 S, KJ/(KG)(K)    86.0080  86.0946  86.1810  86.2673  86.3534  86.4394  84.8087  84.8970

 M, (1/n)           2.015    2.015    2.015    2.015    2.015    2.015    2.015    2.015
 (dLV/dLP)t      -1.00021 -1.00022 -1.00023 -1.00025 -1.00027 -1.00028 -1.00011 -1.00011
 (dLV/dLT)p        1.0055   1.0058   1.0062   1.0066   1.0070   1.0074   1.0030   1.0032
 Cp, KJ/(KG)(K)   17.6811  17.7331  17.7867  17.8418  17.8986  17.9571  17.2560  17.2954
 GAMMAs            1.3085   1.3075   1.3066   1.3056   1.3047   1.3037   1.3164   1.3157
 SON VEL,M/SEC     3318.7   3325.7   3332.7   3339.6   3346.5   3353.3   3254.2   3261.6

 TRANSPORT PROPERTIES (GASES ONLY)
   CONDUCTIVITY IN UNITS OF MILLIWATTS/(CM)(K)

 VISC,MILLIPOISE  0.34012  0.34136  0.34260  0.34383  0.34507  0.34631  0.32900  0.33023

  WITH EQUILIBRIUM REACTIONS

 Cp, KJ/(KG)(K)   17.6811  17.7331  17.7867  17.8418  17.8986  17.9571  17.2560  17.2954
 CONDUCTIVITY      8.8100   8.8828   8.9574   9.0338   9.1122   9.1926   8.2101   8.2683
 PRANDTL NUMBER    0.6826   0.6815   0.6803   0.6791   0.6778   0.6765   0.6915   0.6908

  WITH FROZEN REACTIONS

 Cp, KJ/(KG)(K)   17.0734  17.0905  17.1075  17.1245  17.1413  17.1581  16.9156  16.9335
 CONDUCTIVITY      8.2475   8.2855   8.3236   8.3617   8.3999   8.4381   7.9066   7.9443
 PRANDTL NUMBER    0.7041   0.7041   0.7041   0.7042   0.7042   0.7042   0.7039   0.7039

 MOLE FRACTIONS

 *H               0.00082  0.00088  0.00094  0.00100  0.00106  0.00113  0.00042  0.00045
 *H2              0.99918  0.99912  0.99906  0.99900  0.99894  0.99887  0.99958  0.99955

  * THERMODYNAMIC PROPERTIES FITTED TO 20000.K

 NOTE. WEIGHT FRACTION OF FUEL IN TOTAL FUELS AND OF OXIDANT IN TOTAL OXIDANTS









               THERMODYNAMIC EQUILIBRIUM PROPERTIES AT ASSIGNED

                           TEMPERATURE AND PRESSURE

 CASE =                

             REACTANT                    WT FRACTION      ENERGY      TEMP
                                          (SEE NOTE)     KJ/KG-MOL      K  
             H2                           1.0000000         0.000      0.000

 O/F=    0.00000  %FUEL=100.000000  R,EQ.RATIO= 0.000000  PHI,EQ.RATIO= 0.000000

 THERMODYNAMIC PROPERTIES

 P, BAR            7.4000   7.4000   7.4000   7.4000   7.4000   7.4000   7.4000   7.4000
 T, K             1970.00  1980.00  1990.00  2000.00  2010.00  2020.00  2030.00  2040.00
 RHO, KG/CU M    9.1052-2 9.0590-2 9.0133-2 8.9681-2 8.9233-2 8.8789-2 8.8350-2 8.7914-2
 H, KJ/KG         25811.9  25985.5  26159.5  26333.9  26508.8  26684.1  26859.9  27036.2
 U, KJ/KG         17684.7  17816.9  17949.4  18082.4  18215.9  18349.7  18484.1  18618.9
 G, KJ/KG       -141608.8-142459.1-143310.3-144162.3-145015.2-145869.0-146723.7-147579.2
 S, KJ/(KG)(K)    84.9851  85.0730  85.1607  85.2481  85.3353  85.4223  85.5091  85.5958

 M, (1/n)           2.015    2.015    2.015    2.015    2.015    2.015    2.015    2.015
 (dLV/dLP)t      -1.00012 -1.00013 -1.00014 -1.00015 -1.00016 -1.00017 -1.00018 -1.00020
 (dLV/dLT)p        1.0034   1.0036   1.0038   1.0041   1.0043   1.0046   1.0049   1.0052
 Cp, KJ/(KG)(K)   17.3359  17.3774  17.4200  17.4638  17.5088  17.5551  17.6027  17.6516
 GAMMAs            1.3149   1.3140   1.3132   1.3124   1.3115   1.3107   1.3098   1.3089
 SON VEL,M/SEC     3269.0   3276.3   3283.5   3290.8   3298.0   3305.1   3312.2   3319.3

 TRANSPORT PROPERTIES (GASES ONLY)
   CONDUCTIVITY IN UNITS OF MILLIWATTS/(CM)(K)

 VISC,MILLIPOISE  0.33147  0.33270  0.33394  0.33517  0.33641  0.33765  0.33888  0.34012

  WITH EQUILIBRIUM REACTIONS

 Cp, KJ/(KG)(K)   17.3359  17.3774  17.4200  17.4638  17.5088  17.5551  17.6027  17.6516
 CONDUCTIVITY      8.3279   8.3886   8.4507   8.5141   8.5789   8.6452   8.7130   8.7825
 PRANDTL NUMBER    0.6900   0.6892   0.6884   0.6875   0.6866   0.6856   0.6846   0.6836

  WITH FROZEN REACTIONS

 Cp, KJ/(KG)(K)   16.9512  16.9689  16.9865  17.0040  17.0215  17.0388  17.0561  17.0733
 CONDUCTIVITY      7.9820   8.0198   8.0576   8.0954   8.1333   8.1712   8.2092   8.2472
 PRANDTL NUMBER    0.7039   0.7040   0.7040   0.7040   0.7040   0.7041   0.7041   0.7041

 MOLE FRACTIONS

 *H               0.00049  0.00052  0.00056  0.00060  0.00064  0.00069  0.00073  0.00078
 *H2              0.99951  0.99948  0.99944  0.99940  0.99936  0.99931  0.99927  0.99922

  * THERMODYNAMIC PROPERTIES FITTED TO 20000.K

 NOTE. WEIGHT FRACTION OF FUEL IN TOTAL FUELS AND OF OXIDANT IN TOTAL OXIDANTS









               THERMODYNAMIC EQUILIBRIUM PROPERTIES AT ASSIGNED

                           TEMPERATURE AND PRESSURE

 CASE =                

             REACTANT                    WT FRACTION      ENERGY      TEMP
                                          (SEE NOTE)     KJ/KG-MOL      K  
             H2                           1.0000000         0.000      0.000

 O/F=    0.00000  %FUEL=100.000000  R,EQ.RATIO= 0.000000  PHI,EQ.RATIO= 0.000000

 THERMODYNAMIC PROPERTIES

 P, BAR            7.4000   7.4000   7.4000   7.4000   7.4000   8.2500   8.2500   8.2500
 T, K             2050.00  2060.00  2070.00  2080.00  2090.00  1950.00  1960.00  1970.00
 RHO, KG/CU M    8.7483-2 8.7056-2 8.6633-2 8.6214-2 8.5798-2 1.0256-1 1.0203-1 1.0151-1
 H, KJ/KG         27212.9  27390.2  27568.0  27746.3  27925.2  25463.5  25636.1  25809.0
 U, KJ/KG         18754.1  18889.9  19026.2  19163.0  19300.4  17419.1  17550.3  17681.9
 G, KJ/KG       -148435.6-149292.8-150150.9-151009.9-151869.8-139036.2-139880.2-140725.1
 S, KJ/(KG)(K)    85.6822  85.7685  85.8546  85.9405  86.0263  84.3588  84.4471  84.5351

 M, (1/n)           2.015    2.015    2.015    2.015    2.015    2.015    2.015    2.015
 (dLV/dLP)t      -1.00021 -1.00022 -1.00024 -1.00025 -1.00027 -1.00010 -1.00011 -1.00012
 (dLV/dLT)p        1.0056   1.0059   1.0063   1.0066   1.0070   1.0028   1.0030   1.0032
 Cp, KJ/(KG)(K)   17.7019  17.7537  17.8070  17.8618  17.9182  17.2380  17.2762  17.3155
 GAMMAs            1.3080   1.3071   1.3062   1.3052   1.3043   1.3168   1.3160   1.3152
 SON VEL,M/SEC     3326.3   3333.3   3340.2   3347.1   3354.0   3254.6   3262.0   3269.4

 TRANSPORT PROPERTIES (GASES ONLY)
   CONDUCTIVITY IN UNITS OF MILLIWATTS/(CM)(K)

 VISC,MILLIPOISE  0.34135  0.34259  0.34382  0.34506  0.34630  0.32899  0.33023  0.33146

  WITH EQUILIBRIUM REACTIONS

 Cp, KJ/(KG)(K)   17.7019  17.7537  17.8070  17.8618  17.9182  17.2380  17.2762  17.3155
 CONDUCTIVITY      8.8535   8.9263   9.0009   9.0773   9.1557   8.1938   8.2510   8.3094
 PRANDTL NUMBER    0.6825   0.6814   0.6802   0.6790   0.6777   0.6921   0.6914   0.6907

  WITH FROZEN REACTIONS

 Cp, KJ/(KG)(K)   17.0904  17.1074  17.1244  17.1413  17.1581  16.9156  16.9334  16.9512
 CONDUCTIVITY      8.2852   8.3232   8.3613   8.3995   8.4377   7.9064   7.9441   7.9818
 PRANDTL NUMBER    0.7041   0.7042   0.7042   0.7042   0.7042   0.7039   0.7039   0.7039

 MOLE FRACTIONS

 *H               0.00083  0.00089  0.00095  0.00101  0.00108  0.00040  0.00043  0.00046
 *H2              0.99917  0.99911  0.99905  0.99899  0.99892  0.99960  0.99957  0.99954

  * THERMODYNAMIC PROPERTIES FITTED TO 20000.K

 NOTE. WEIGHT FRACTION OF FUEL IN TOTAL FUELS AND OF OXIDANT IN TOTAL OXIDANTS









               THERMODYNAMIC EQUILIBRIUM PROPERTIES AT ASSIGNED

                           TEMPERATURE AND PRESSURE

 CASE =                

             REACTANT                    WT FRACTION      ENERGY      TEMP
                                          (SEE NOTE)     KJ/KG-MOL      K  
             H2                           1.0000000         0.000      0.000

 O/F=    0.00000  %FUEL=100.000000  R,EQ.RATIO= 0.000000  PHI,EQ.RATIO= 0.000000

 THERMODYNAMIC PROPERTIES

 P, BAR            8.2500   8.2500   8.2500   8.2500   8.2500   8.2500   8.2500   8.2500
 T, K             1980.00  1990.00  2000.00  2010.00  2020.00  2030.00  2040.00  2050.00
 RHO, KG/CU M    1.0100-1 1.0049-1 9.9984-2 9.9484-2 9.8990-2 9.8500-2 9.8015-2 9.7534-2
 H, KJ/KG         25982.4  26156.2  26330.3  26505.0  26680.0  26855.5  27031.5  27207.9
 U, KJ/KG         17813.9  17946.2  18079.0  18212.2  18345.8  18479.9  18614.4  18749.4
 G, KJ/KG       -141570.9-142417.6-143265.1-144113.5-144962.8-145812.9-146664.0-147515.8
 S, KJ/(KG)(K)    84.6229  84.7104  84.7977  84.8848  84.9717  85.0584  85.1448  85.2311

 M, (1/n)           2.015    2.015    2.015    2.015    2.015    2.015    2.015    2.015
 (dLV/dLP)t      -1.00012 -1.00013 -1.00014 -1.00015 -1.00016 -1.00017 -1.00019 -1.00020
 (dLV/dLT)p        1.0034   1.0036   1.0039   1.0041   1.0044   1.0047   1.0050   1.0053
 Cp, KJ/(KG)(K)   17.3557  17.3971  17.4395  17.4830  17.5277  17.5737  17.6209  17.6695
 GAMMAs            1.3144   1.3136   1.3128   1.3120   1.3111   1.3103   1.3094   1.3085
 SON VEL,M/SEC     3276.7   3284.0   3291.2   3298.5   3305.6   3312.8   3319.9   3326.9

 TRANSPORT PROPERTIES (GASES ONLY)
   CONDUCTIVITY IN UNITS OF MILLIWATTS/(CM)(K)

 VISC,MILLIPOISE  0.33270  0.33393  0.33517  0.33640  0.33764  0.33887  0.34011  0.34134

  WITH EQUILIBRIUM REACTIONS

 Cp, KJ/(KG)(K)   17.3557  17.3971  17.4395  17.4830  17.5277  17.5737  17.6209  17.6695
 CONDUCTIVITY      8.3689   8.4297   8.4917   8.5551   8.6199   8.6861   8.7538   8.8231
 PRANDTL NUMBER    0.6900   0.6892   0.6883   0.6875   0.6866   0.6856   0.6846   0.6836

  WITH FROZEN REACTIONS

 Cp, KJ/(KG)(K)   16.9689  16.9865  17.0040  17.0214  17.0388  17.0560  17.0732  17.0903
 CONDUCTIVITY      8.0196   8.0574   8.0952   8.1331   8.1710   8.2089   8.2468   8.2848
 PRANDTL NUMBER    0.7040   0.7040   0.7040   0.7040   0.7041   0.7041   0.7041   0.7041

 MOLE FRACTIONS

 *H               0.00049  0.00053  0.00057  0.00061  0.00065  0.00069  0.00074  0.00079
 *H2              0.99951  0.99947  0.99943  0.99939  0.99935  0.99931  0.99926  0.99921

  * THERMODYNAMIC PROPERTIES FITTED TO 20000.K

 NOTE. WEIGHT FRACTION OF FUEL IN TOTAL FUELS AND OF OXIDANT IN TOTAL OXIDANTS









               THERMODYNAMIC EQUILIBRIUM PROPERTIES AT ASSIGNED

                           TEMPERATURE AND PRESSURE

 CASE =                

             REACTANT                    WT FRACTION      ENERGY      TEMP
                                          (SEE NOTE)     KJ/KG-MOL      K  
             H2                           1.0000000         0.000      0.000

 O/F=    0.00000  %FUEL=100.000000  R,EQ.RATIO= 0.000000  PHI,EQ.RATIO= 0.000000

 THERMODYNAMIC PROPERTIES

 P, BAR            8.2500   8.2500   8.2500   8.2500   9.1000   9.1000   9.1000   9.1000
 T, K             2060.00  2070.00  2080.00  2090.00  1950.00  1960.00  1970.00  1980.00
 RHO, KG/CU M    9.7058-2 9.6586-2 9.6119-2 9.5656-2 1.1312-1 1.1254-1 1.1197-1 1.1140-1
 H, KJ/KG         27384.9  27562.3  27740.3  27918.8  25461.4  25633.8  25806.6  25979.7
 U, KJ/KG         18884.8  19020.8  19157.2  19294.2  17417.1  17548.1  17679.5  17811.3
 G, KJ/KG       -148368.6-149222.2-150076.6-150932.0-138247.3-139087.3-139928.1-140769.9
 S, KJ/(KG)(K)    85.3172  85.4031  85.4889  85.5745  83.9532  84.0414  84.1293  84.2170

 M, (1/n)           2.015    2.015    2.015    2.015    2.015    2.015    2.015    2.015
 (dLV/dLP)t      -1.00021 -1.00022 -1.00024 -1.00026 -1.00009 -1.00010 -1.00011 -1.00012
 (dLV/dLT)p        1.0056   1.0059   1.0063   1.0067   1.0027   1.0028   1.0030   1.0032
 Cp, KJ/(KG)(K)   17.7194  17.7708  17.8236  17.8779  17.2225  17.2598  17.2980  17.3372
 GAMMAs            1.3076   1.3067   1.3058   1.3049   1.3170   1.3163   1.3155   1.3147
 SON VEL,M/SEC     3333.9   3340.9   3347.8   3354.7   3254.9   3262.3   3269.7   3277.1

 TRANSPORT PROPERTIES (GASES ONLY)
   CONDUCTIVITY IN UNITS OF MILLIWATTS/(CM)(K)

 VISC,MILLIPOISE  0.34258  0.34382  0.34505  0.34629  0.32899  0.33022  0.33146  0.33269

  WITH EQUILIBRIUM REACTIONS

 Cp, KJ/(KG)(K)   17.7194  17.7708  17.8236  17.8779  17.2225  17.2598  17.2980  17.3372
 CONDUCTIVITY      8.8941   8.9667   9.0411   9.1173   8.1799   8.2362   8.2936   8.3520
 PRANDTL NUMBER    0.6825   0.6814   0.6802   0.6790   0.6927   0.6920   0.6913   0.6906

  WITH FROZEN REACTIONS

 Cp, KJ/(KG)(K)   17.1073  17.1243  17.1412  17.1580  16.9156  16.9334  16.9512  16.9688
 CONDUCTIVITY      8.3229   8.3610   8.3991   8.4372   7.9063   7.9439   7.9817   8.0194
 PRANDTL NUMBER    0.7042   0.7042   0.7042   0.7042   0.7039   0.7039   0.7039   0.7040

 MOLE FRACTIONS

 *H               0.00084  0.00090  0.00096  0.00102  0.00038  0.00041  0.00044  0.00047
 *H2              0.99916  0.99910  0.99904  0.99898  0.99962  0.99959  0.99956  0.99953

  * THERMODYNAMIC PROPERTIES FITTED TO 20000.K

 NOTE. WEIGHT FRACTION OF FUEL IN TOTAL FUELS AND OF OXIDANT IN TOTAL OXIDANTS









               THERMODYNAMIC EQUILIBRIUM PROPERTIES AT ASSIGNED

                           TEMPERATURE AND PRESSURE

 CASE =                

             REACTANT                    WT FRACTION      ENERGY      TEMP
                                          (SEE NOTE)     KJ/KG-MOL      K  
             H2                           1.0000000         0.000      0.000

 O/F=    0.00000  %FUEL=100.000000  R,EQ.RATIO= 0.000000  PHI,EQ.RATIO= 0.000000

 THERMODYNAMIC PROPERTIES

 P, BAR            9.1000   9.1000   9.1000   9.1000   9.1000   9.1000   9.1000   9.1000
 T, K             1990.00  2000.00  2010.00  2020.00  2030.00  2040.00  2050.00  2060.00
 RHO, KG/CU M    1.1084-1 1.1029-1 1.0974-1 1.0919-1 1.0865-1 1.0812-1 1.0759-1 1.0706-1
 H, KJ/KG         26153.3  26327.3  26501.7  26676.5  26851.8  27027.5  27203.7  27380.3
 U, KJ/KG         17943.5  18076.1  18209.0  18342.4  18476.3  18610.5  18745.3  18880.4
 G, KJ/KG       -141612.5-142456.0-143300.3-144145.5-144991.6-145838.6-146686.4-147535.1
 S, KJ/(KG)(K)    84.3044  84.3916  84.4786  84.5654  84.6519  84.7383  84.8244  84.9104

 M, (1/n)           2.015    2.015    2.015    2.015    2.015    2.015    2.015    2.015
 (dLV/dLP)t      -1.00013 -1.00013 -1.00014 -1.00015 -1.00017 -1.00018 -1.00019 -1.00020
 (dLV/dLT)p        1.0035   1.0037   1.0039   1.0042   1.0044   1.0047   1.0050   1.0053
 Cp, KJ/(KG)(K)   17.3774  17.4186  17.4609  17.5043  17.5489  17.5946  17.6417  17.6900
 GAMMAs            1.3139   1.3131   1.3123   1.3115   1.3107   1.3098   1.3090   1.3081
 SON VEL,M/SEC     3284.4   3291.7   3298.9   3306.1   3313.2   3320.4   3327.4   3334.5

 TRANSPORT PROPERTIES (GASES ONLY)
   CONDUCTIVITY IN UNITS OF MILLIWATTS/(CM)(K)

 VISC,MILLIPOISE  0.33393  0.33516  0.33640  0.33763  0.33887  0.34010  0.34134  0.34257

  WITH EQUILIBRIUM REACTIONS

 Cp, KJ/(KG)(K)   17.3774  17.4186  17.4609  17.5043  17.5489  17.5946  17.6417  17.6900
 CONDUCTIVITY      8.4117   8.4726   8.5347   8.5982   8.6630   8.7293   8.7971   8.8664
 PRANDTL NUMBER    0.6899   0.6891   0.6882   0.6874   0.6865   0.6855   0.6845   0.6835

  WITH FROZEN REACTIONS

 Cp, KJ/(KG)(K)   16.9864  17.0039  17.0214  17.0387  17.0560  17.0732  17.0903  17.1073
 CONDUCTIVITY      8.0572   8.0950   8.1329   8.1707   8.2086   8.2466   8.2846   8.3226
 PRANDTL NUMBER    0.7040   0.7040   0.7041   0.7041   0.7041   0.7041   0.7041   0.7042

 MOLE FRACTIONS

 *H               0.00050  0.00054  0.00058  0.00062  0.00066  0.00071  0.00075  0.00080
 *H2              0.99950  0.99946  0.99942  0.99938  0.99934  0.99929  0.99925  0.99920

  * THERMODYNAMIC PROPERTIES FITTED TO 20000.K

 NOTE. WEIGHT FRACTION OF FUEL IN TOTAL FUELS AND OF OXIDANT IN TOTAL OXIDANTS









               THERMODYNAMIC EQUILIBRIUM PROPERTIES AT ASSIGNED

                           TEMPERATURE AND PRESSURE

 CASE =                

             REACTANT                    WT FRACTION      ENERGY      TEMP
                                          (SEE NOTE)     KJ/KG-MOL      K  
             H2                           1.0000000         0.000      0.000

 O/F=    0.00000  %FUEL=100.000000  R,EQ.RATIO= 0.000000  PHI,EQ.RATIO= 0.000000

 THERMODYNAMIC PROPERTIES

 P, BAR            9.1000   9.1000   9.1000   10.000   10.000   10.000   10.000   10.000
 T, K             2070.00  2080.00  2090.00  1950.00  1960.00  1970.00  1980.00  1990.00
 RHO, KG/CU M    1.0654-1 1.0602-1 1.0551-1 1.2431-1 1.2368-1 1.2305-1 1.2242-1 1.2181-1
 H, KJ/KG         27557.5  27735.1  27913.3  25459.4  25631.7  25804.3  25977.3  26150.7
 U, KJ/KG         19016.1  19152.2  19288.9  17415.2  17546.1  17677.3  17808.9  17941.0
 G, KJ/KG       -148384.6-149235.0-150086.2-137488.7-138324.7-139161.7-139999.5-140838.2
 S, KJ/(KG)(K)    84.9962  85.0818  85.1672  83.5631  83.6512  83.7391  83.8267  83.9140

 M, (1/n)           2.015    2.015    2.015    2.016    2.015    2.015    2.015    2.015
 (dLV/dLP)t      -1.00021 -1.00023 -1.00024 -1.00009 -1.00010 -1.00010 -1.00011 -1.00012
 (dLV/dLT)p        1.0057   1.0060   1.0064   1.0025   1.0027   1.0029   1.0031   1.0033
 Cp, KJ/(KG)(K)   17.7397  17.7908  17.8434  17.2083  17.2447  17.2820  17.3202  17.3593
 GAMMAs            1.3072   1.3063   1.3054   1.3173   1.3165   1.3158   1.3150   1.3142
 SON VEL,M/SEC     3341.5   3348.5   3355.4   3255.2   3262.7   3270.1   3277.4   3284.7

 TRANSPORT PROPERTIES (GASES ONLY)
   CONDUCTIVITY IN UNITS OF MILLIWATTS/(CM)(K)

 VISC,MILLIPOISE  0.34381  0.34504  0.34628  0.32898  0.33022  0.33146  0.33269  0.33392

  WITH EQUILIBRIUM REACTIONS

 Cp, KJ/(KG)(K)   17.7397  17.7908  17.8434  17.2083  17.2447  17.2820  17.3202  17.3593
 CONDUCTIVITY      8.9374   9.0100   9.0844   8.1672   8.2226   8.2790   8.3366   8.3952
 PRANDTL NUMBER    0.6824   0.6813   0.6802   0.6932   0.6925   0.6919   0.6912   0.6905

  WITH FROZEN REACTIONS

 Cp, KJ/(KG)(K)   17.1242  17.1411  17.1579  16.9155  16.9334  16.9511  16.9688  16.9864
 CONDUCTIVITY      8.3606   8.3987   8.4369   7.9062   7.9438   7.9815   8.0193   8.0570
 PRANDTL NUMBER    0.7042   0.7042   0.7042   0.7039   0.7039   0.7039   0.7040   0.7040

 MOLE FRACTIONS

 *H               0.00086  0.00091  0.00097  0.00036  0.00039  0.00042  0.00045  0.00048
 *H2              0.99914  0.99909  0.99903  0.99964  0.99961  0.99958  0.99955  0.99952

  * THERMODYNAMIC PROPERTIES FITTED TO 20000.K

 NOTE. WEIGHT FRACTION OF FUEL IN TOTAL FUELS AND OF OXIDANT IN TOTAL OXIDANTS









               THERMODYNAMIC EQUILIBRIUM PROPERTIES AT ASSIGNED

                           TEMPERATURE AND PRESSURE

 CASE =                

             REACTANT                    WT FRACTION      ENERGY      TEMP
                                          (SEE NOTE)     KJ/KG-MOL      K  
             H2                           1.0000000         0.000      0.000

 O/F=    0.00000  %FUEL=100.000000  R,EQ.RATIO= 0.000000  PHI,EQ.RATIO= 0.000000

 THERMODYNAMIC PROPERTIES

 P, BAR            10.000   10.000   10.000   10.000   10.000   10.000   10.000   10.000
 T, K             2000.00  2010.00  2020.00  2030.00  2040.00  2050.00  2060.00  2070.00
 RHO, KG/CU M    1.2120-1 1.2059-1 1.1999-1 1.1940-1 1.1881-1 1.1823-1 1.1765-1 1.1708-1
 H, KJ/KG         26324.5  26498.7  26673.3  26848.4  27023.8  27199.8  27376.2  27553.0
 U, KJ/KG         18073.4  18206.1  18339.3  18473.0  18607.0  18741.5  18876.4  19011.8
 G, KJ/KG       -141677.8-142518.2-143359.5-144201.7-145044.8-145888.7-146733.4-147579.1
 S, KJ/(KG)(K)    84.0011  84.0880  84.1747  84.2611  84.3474  84.4334  84.5192  84.6049

 M, (1/n)           2.015    2.015    2.015    2.015    2.015    2.015    2.015    2.015
 (dLV/dLP)t      -1.00013 -1.00014 -1.00015 -1.00016 -1.00017 -1.00018 -1.00019 -1.00020
 (dLV/dLT)p        1.0035   1.0037   1.0040   1.0042   1.0045   1.0048   1.0051   1.0054
 Cp, KJ/(KG)(K)   17.3994  17.4406  17.4828  17.5261  17.5706  17.6162  17.6631  17.7113
 GAMMAs            1.3135   1.3127   1.3119   1.3110   1.3102   1.3094   1.3085   1.3077
 SON VEL,M/SEC     3292.0   3299.3   3306.5   3313.7   3320.8   3327.9   3335.0   3342.0

 TRANSPORT PROPERTIES (GASES ONLY)
   CONDUCTIVITY IN UNITS OF MILLIWATTS/(CM)(K)

 VISC,MILLIPOISE  0.33516  0.33639  0.33763  0.33886  0.34010  0.34133  0.34257  0.34380

  WITH EQUILIBRIUM REACTIONS

 Cp, KJ/(KG)(K)   17.3994  17.4406  17.4828  17.5261  17.5706  17.6162  17.6631  17.7113
 CONDUCTIVITY      8.4550   8.5160   8.5783   8.6419   8.7069   8.7733   8.8411   8.9105
 PRANDTL NUMBER    0.6897   0.6889   0.6881   0.6872   0.6863   0.6854   0.6844   0.6834

  WITH FROZEN REACTIONS

 Cp, KJ/(KG)(K)   17.0039  17.0213  17.0387  17.0559  17.0731  17.0902  17.1072  17.1241
 CONDUCTIVITY      8.0948   8.1327   8.1705   8.2084   8.2463   8.2843   8.3223   8.3603
 PRANDTL NUMBER    0.7040   0.7041   0.7041   0.7041   0.7041   0.7042   0.7042   0.7042

 MOLE FRACTIONS

 *H               0.00051  0.00055  0.00059  0.00063  0.00067  0.00072  0.00077  0.00082
 *H2              0.99949  0.99945  0.99941  0.99937  0.99933  0.99928  0.99923  0.99918

  * THERMODYNAMIC PROPERTIES FITTED TO 20000.K

 NOTE. WEIGHT FRACTION OF FUEL IN TOTAL FUELS AND OF OXIDANT IN TOTAL OXIDANTS









               THERMODYNAMIC EQUILIBRIUM PROPERTIES AT ASSIGNED

                           TEMPERATURE AND PRESSURE

 CASE =                

             REACTANT                    WT FRACTION      ENERGY      TEMP
                                          (SEE NOTE)     KJ/KG-MOL      K  
             H2                           1.0000000         0.000      0.000

 O/F=    0.00000  %FUEL=100.000000  R,EQ.RATIO= 0.000000  PHI,EQ.RATIO= 0.000000

 THERMODYNAMIC PROPERTIES

 P, BAR            10.000   10.000   11.000   11.000   11.000   11.000   11.000   11.000
 T, K             2080.00  2090.00  1950.00  1960.00  1970.00  1980.00  1990.00  2000.00
 RHO, KG/CU M    1.1651-1 1.1595-1 1.3674-1 1.3605-1 1.3535-1 1.3467-1 1.3399-1 1.3332-1
 H, KJ/KG         27730.4  27908.3  25457.5  25629.6  25802.1  25975.0  26148.2  26321.8
 U, KJ/KG         19147.7  19284.0  17413.3  17544.1  17675.2  17806.7  17938.5  18070.8
 G, KJ/KG       -148425.5-149272.9-136722.0-137554.1-138387.1-139221.0-140055.7-140891.4
 S, KJ/(KG)(K)    84.6903  84.7757  83.1690  83.2570  83.3448  83.4323  83.5196  83.6066

 M, (1/n)           2.015    2.015    2.016    2.016    2.015    2.015    2.015    2.015
 (dLV/dLP)t      -1.00022 -1.00023 -1.00009 -1.00009 -1.00010 -1.00011 -1.00011 -1.00012
 (dLV/dLT)p        1.0057   1.0061   1.0024   1.0026   1.0028   1.0029   1.0031   1.0033
 Cp, KJ/(KG)(K)   17.7608  17.8117  17.1947  17.2302  17.2666  17.3038  17.3419  17.3810
 GAMMAs            1.3068   1.3059   1.3175   1.3168   1.3160   1.3153   1.3145   1.3138
 SON VEL,M/SEC     3349.0   3356.0   3255.5   3262.9   3270.4   3277.7   3285.1   3292.4

 TRANSPORT PROPERTIES (GASES ONLY)
   CONDUCTIVITY IN UNITS OF MILLIWATTS/(CM)(K)

 VISC,MILLIPOISE  0.34503  0.34627  0.32898  0.33022  0.33145  0.33269  0.33392  0.33515

  WITH EQUILIBRIUM REACTIONS

 Cp, KJ/(KG)(K)   17.7608  17.8117  17.1947  17.2302  17.2666  17.3038  17.3419  17.3810
 CONDUCTIVITY      8.9815   9.0542   8.1550   8.2095   8.2651   8.3216   8.3793   8.4381
 PRANDTL NUMBER    0.6823   0.6812   0.6937   0.6931   0.6924   0.6918   0.6911   0.6904

  WITH FROZEN REACTIONS

 Cp, KJ/(KG)(K)   17.1410  17.1578  16.9155  16.9333  16.9511  16.9688  16.9863  17.0038
 CONDUCTIVITY      8.3984   8.4365   7.9060   7.9437   7.9814   8.0191   8.0569   8.0947
 PRANDTL NUMBER    0.7042   0.7042   0.7039   0.7039   0.7039   0.7040   0.7040   0.7040

 MOLE FRACTIONS

 *H               0.00087  0.00093  0.00035  0.00037  0.00040  0.00043  0.00046  0.00049
 *H2              0.99913  0.99907  0.99965  0.99963  0.99960  0.99957  0.99954  0.99951

  * THERMODYNAMIC PROPERTIES FITTED TO 20000.K

 NOTE. WEIGHT FRACTION OF FUEL IN TOTAL FUELS AND OF OXIDANT IN TOTAL OXIDANTS









               THERMODYNAMIC EQUILIBRIUM PROPERTIES AT ASSIGNED

                           TEMPERATURE AND PRESSURE

 CASE =                

             REACTANT                    WT FRACTION      ENERGY      TEMP
                                          (SEE NOTE)     KJ/KG-MOL      K  
             H2                           1.0000000         0.000      0.000

 O/F=    0.00000  %FUEL=100.000000  R,EQ.RATIO= 0.000000  PHI,EQ.RATIO= 0.000000

 THERMODYNAMIC PROPERTIES

 P, BAR            11.000   11.000   11.000   11.000   11.000   11.000   11.000   11.000
 T, K             2010.00  2020.00  2030.00  2040.00  2050.00  2060.00  2070.00  2080.00
 RHO, KG/CU M    1.3265-1 1.3199-1 1.3134-1 1.3069-1 1.3005-1 1.2942-1 1.2879-1 1.2817-1
 H, KJ/KG         26495.8  26670.2  26845.0  27020.3  27196.0  27372.1  27548.7  27725.8
 U, KJ/KG         18203.4  18336.4  18469.8  18603.6  18737.9  18872.6  19007.7  19143.3
 G, KJ/KG       -141727.9-142565.2-143403.5-144242.6-145082.5-145923.3-146765.0-147607.5
 S, KJ/(KG)(K)    83.6934  83.7799  83.8663  83.9524  84.0383  84.1240  84.2095  84.2949

 M, (1/n)           2.015    2.015    2.015    2.015    2.015    2.015    2.015    2.015
 (dLV/dLP)t      -1.00013 -1.00014 -1.00015 -1.00016 -1.00017 -1.00018 -1.00019 -1.00021
 (dLV/dLT)p        1.0036   1.0038   1.0040   1.0043   1.0046   1.0048   1.0051   1.0055
 Cp, KJ/(KG)(K)   17.4210  17.4621  17.5042  17.5474  17.5917  17.6372  17.6839  17.7319
 GAMMAs            1.3130   1.3122   1.3114   1.3106   1.3098   1.3089   1.3081   1.3073
 SON VEL,M/SEC     3299.7   3306.9   3314.1   3321.3   3328.4   3335.5   3342.5   3349.6

 TRANSPORT PROPERTIES (GASES ONLY)
   CONDUCTIVITY IN UNITS OF MILLIWATTS/(CM)(K)

 VISC,MILLIPOISE  0.33639  0.33762  0.33886  0.34009  0.34132  0.34256  0.34379  0.34503

  WITH EQUILIBRIUM REACTIONS

 Cp, KJ/(KG)(K)   17.4210  17.4621  17.5042  17.5474  17.5917  17.6372  17.6839  17.7319
 CONDUCTIVITY      8.4980   8.5591   8.6215   8.6852   8.7503   8.8167   8.8847   8.9541
 PRANDTL NUMBER    0.6896   0.6888   0.6880   0.6871   0.6862   0.6853   0.6843   0.6833

  WITH FROZEN REACTIONS

 Cp, KJ/(KG)(K)   17.0213  17.0386  17.0559  17.0730  17.0901  17.1071  17.1241  17.1409
 CONDUCTIVITY      8.1325   8.1703   8.2082   8.2461   8.2841   8.3220   8.3601   8.3981
 PRANDTL NUMBER    0.7041   0.7041   0.7041   0.7041   0.7042   0.7042   0.7042   0.7042

 MOLE FRACTIONS

 *H               0.00053  0.00056  0.00060  0.00064  0.00068  0.00073  0.00078  0.00083
 *H2              0.99947  0.99944  0.99940  0.99936  0.99932  0.99927  0.99922  0.99917

  * THERMODYNAMIC PROPERTIES FITTED TO 20000.K

 NOTE. WEIGHT FRACTION OF FUEL IN TOTAL FUELS AND OF OXIDANT IN TOTAL OXIDANTS









               THERMODYNAMIC EQUILIBRIUM PROPERTIES AT ASSIGNED

                           TEMPERATURE AND PRESSURE

 CASE =                

             REACTANT                    WT FRACTION      ENERGY      TEMP
                                          (SEE NOTE)     KJ/KG-MOL      K  
             H2                           1.0000000         0.000      0.000

 O/F=    0.00000  %FUEL=100.000000  R,EQ.RATIO= 0.000000  PHI,EQ.RATIO= 0.000000

 THERMODYNAMIC PROPERTIES

 P, BAR            11.000
 T, K             2090.00
 RHO, KG/CU M    1.2755-1
 H, KJ/KG         27903.4
 U, KJ/KG         19279.4
 G, KJ/KG       -148450.9
 S, KJ/(KG)(K)    84.3800

 M, (1/n)           2.015
 (dLV/dLP)t      -1.00022
 (dLV/dLT)p        1.0058
 Cp, KJ/(KG)(K)   17.7812
 GAMMAs            1.3064
 SON VEL,M/SEC     3356.5

 TRANSPORT PROPERTIES (GASES ONLY)
   CONDUCTIVITY IN UNITS OF MILLIWATTS/(CM)(K)

 VISC,MILLIPOISE  0.34626

  WITH EQUILIBRIUM REACTIONS

 Cp, KJ/(KG)(K)   17.7812
 CONDUCTIVITY      9.0252
 PRANDTL NUMBER    0.6822

  WITH FROZEN REACTIONS

 Cp, KJ/(KG)(K)   17.1577
 CONDUCTIVITY      8.4362
 PRANDTL NUMBER    0.7042

 MOLE FRACTIONS

 *H               0.00088
 *H2              0.99912

  * THERMODYNAMIC PROPERTIES FITTED TO 20000.K

 NOTE. WEIGHT FRACTION OF FUEL IN TOTAL FUELS AND OF OXIDANT IN TOTAL OXIDANTS



  
