
 *******************************************************************************

         NASA-GLENN CHEMICAL EQUILIBRIUM PROGRAM CEA2, MAY 21, 2004
                   BY  BONNIE MCBRIDE AND SANFORD GORDON
      REFS: NASA RP-1311, PART I, 1994 AND NASA RP-1311, PART II, 1996

 *******************************************************************************



  prob tp ions
  p,bar= 0.001,0.0011,0.0012,0.00132,0.00148,0.00165,0.0018,0.002,0.00225,0.0025,
 0.0028,0.0031,0.0035,0.0039,0.0044
  t,k= 3750,3760,3770,3780,3790,3800,3810,3820,3830,3840,3850,3860,3870,3880,3890
  
  reac
  na H2                wt%=100.0000
  
  output short
  output siunits
  output transport
  
 end





               THERMODYNAMIC EQUILIBRIUM PROPERTIES AT ASSIGNED

                           TEMPERATURE AND PRESSURE

 CASE =                

             REACTANT                    WT FRACTION      ENERGY      TEMP
                                          (SEE NOTE)     KJ/KG-MOL      K  
             H2                           1.0000000         0.000      0.000

 O/F=    0.00000  %FUEL=100.000000  R,EQ.RATIO= 0.000000  PHI,EQ.RATIO= 0.000000

 THERMODYNAMIC PROPERTIES

 P, BAR           0.00100  0.00100  0.00100  0.00100  0.00100  0.00100  0.00100  0.00100
 T, K             3750.00  3760.00  3770.00  3780.00  3790.00  3800.00  3810.00  3820.00
 RHO, KG/CU M    3.2359-6 3.2272-6 3.2185-6 3.2099-6 3.2013-6 3.1928-6 3.1843-6 3.1759-6
 H, KJ/KG        287013.9 287237.8 287460.8 287683.1 287904.7 288125.6 288345.9 288565.6
 U, KJ/KG        256110.7 256251.0 256390.5 256529.2 256667.4 256804.9 256941.8 257078.1
 G, KJ/KG       -548856.1-551083.3-553313.0-555543.5-557774.5-560006.1-562238.4-564471.1
 S, KJ/(KG)(K)   222.8987 222.9577 223.0169 223.0758 223.1343 223.1926 223.2505 223.3080

 M, (1/n)           1.009    1.009    1.009    1.009    1.009    1.009    1.009    1.009
 (dLV/dLP)t      -1.00098 -1.00095 -1.00091 -1.00088 -1.00085 -1.00081 -1.00078 -1.00075
 (dLV/dLT)p        1.0146   1.0141   1.0135   1.0129   1.0124   1.0119   1.0114   1.0110
 Cp, KJ/(KG)(K)   22.4099  22.3347  22.2611  22.1910  22.1241  22.0605  21.9999  21.9421
 GAMMAs            1.6067   1.6090   1.6112   1.6134   1.6155   1.6175   1.6194   1.6213
 SON VEL,M/SEC     7046.4   7060.9   7075.4   7089.7   7103.8   7117.7   7131.4   7144.9

 TRANSPORT PROPERTIES (GASES ONLY)
   CONDUCTIVITY IN UNITS OF MILLIWATTS/(CM)(K)

 VISC,MILLIPOISE  0.42982  0.43073  0.43164  0.43255  0.43346  0.43437  0.43528  0.43620

  WITH EQUILIBRIUM REACTIONS

 Cp, KJ/(KG)(K)   22.4091  22.3347  22.2611  22.1910  22.1241  22.0605  21.9999  21.9421
 CONDUCTIVITY     14.6765  14.6477  14.6215  14.5978  14.5765  14.5574  14.5405  14.5257
 PRANDTL NUMBER    0.6563   0.6568   0.6572   0.6575   0.6579   0.6583   0.6586   0.6589

  WITH FROZEN REACTIONS

 Cp, KJ/(KG)(K)   20.6197  20.6198  20.6199  20.6200  20.6201  20.6202  20.6203  20.6204
 CONDUCTIVITY     13.2831  13.3114  13.3400  13.3686  13.3972  13.4259  13.4545  13.4831
 PRANDTL NUMBER    0.6672   0.6672   0.6672   0.6672   0.6672   0.6671   0.6671   0.6671

 MOLE FRACTIONS

 *H               0.99901  0.99905  0.99908  0.99912  0.99915  0.99918  0.99921  0.99924
 *H2              0.00099  0.00095  0.00092  0.00088  0.00085  0.00082  0.00078  0.00076

  * THERMODYNAMIC PROPERTIES FITTED TO 20000.K

 NOTE. WEIGHT FRACTION OF FUEL IN TOTAL FUELS AND OF OXIDANT IN TOTAL OXIDANTS









               THERMODYNAMIC EQUILIBRIUM PROPERTIES AT ASSIGNED

                           TEMPERATURE AND PRESSURE

 CASE =                

             REACTANT                    WT FRACTION      ENERGY      TEMP
                                          (SEE NOTE)     KJ/KG-MOL      K  
             H2                           1.0000000         0.000      0.000

 O/F=    0.00000  %FUEL=100.000000  R,EQ.RATIO= 0.000000  PHI,EQ.RATIO= 0.000000

 THERMODYNAMIC PROPERTIES

 P, BAR           0.00100  0.00100  0.00100  0.00100  0.00100  0.00100  0.00100  0.00110
 T, K             3830.00  3840.00  3850.00  3860.00  3870.00  3880.00  3890.00  3750.00
 RHO, KG/CU M    3.1675-6 3.1592-6 3.1509-6 3.1426-6 3.1344-6 3.1263-6 3.1182-6 3.5599-6
 H, KJ/KG        288784.7 289003.3 289221.4 289439.0 289656.2 289872.9 290089.2 286968.9
 U, KJ/KG        257213.9 257349.3 257484.1 257618.5 257752.4 257886.0 258019.1 256068.7
 G, KJ/KG       -566704.5-568938.5-571173.0-573408.0-575643.7-577879.9-580116.6-545908.6
 S, KJ/(KG)(K)   223.3653 223.4223 223.4791 223.5355 223.5917 223.6476 223.7033 222.1007

 M, (1/n)           1.009    1.009    1.009    1.009    1.009    1.009    1.009    1.009
 (dLV/dLP)t      -1.00073 -1.00070 -1.00067 -1.00065 -1.00062 -1.00060 -1.00058 -1.00109
 (dLV/dLT)p        1.0105   1.0101   1.0097   1.0094   1.0090   1.0087   1.0083   1.0161
 Cp, KJ/(KG)(K)   21.8871  21.8346  21.7846  21.7369  21.6914  21.6481  21.6067  22.5896
 GAMMAs            1.6231   1.6248   1.6264   1.6280   1.6295   1.6309   1.6323   1.6014
 SON VEL,M/SEC     7158.3   7171.5   7184.5   7197.4   7210.1   7222.7   7235.1   7034.4

 TRANSPORT PROPERTIES (GASES ONLY)
   CONDUCTIVITY IN UNITS OF MILLIWATTS/(CM)(K)

 VISC,MILLIPOISE  0.43711  0.43802  0.43894  0.43985  0.44077  0.44168  0.44260  0.42990

  WITH EQUILIBRIUM REACTIONS

 Cp, KJ/(KG)(K)   21.8871  21.8346  21.7846  21.7369  21.6914  21.6481  21.6067  22.5896
 CONDUCTIVITY     14.5127  14.5017  14.4923  14.4847  14.4786  14.4741  14.4709  14.8165
 PRANDTL NUMBER    0.6592   0.6595   0.6598   0.6601   0.6603   0.6606   0.6608   0.6554

  WITH FROZEN REACTIONS

 Cp, KJ/(KG)(K)   20.6205  20.6206  20.6207  20.6208  20.6209  20.6209  20.6210  20.6194
 CONDUCTIVITY     13.5117  13.5404  13.5690  13.5976  13.6262  13.6548  13.6834  13.2841
 PRANDTL NUMBER    0.6671   0.6671   0.6671   0.6670   0.6670   0.6670   0.6670   0.6673

 MOLE FRACTIONS

 *H               0.99927  0.99930  0.99932  0.99935  0.99937  0.99940  0.99942  0.99891
 *H2              0.00073  0.00070  0.00067  0.00065  0.00063  0.00060  0.00058  0.00109

  * THERMODYNAMIC PROPERTIES FITTED TO 20000.K

 NOTE. WEIGHT FRACTION OF FUEL IN TOTAL FUELS AND OF OXIDANT IN TOTAL OXIDANTS









               THERMODYNAMIC EQUILIBRIUM PROPERTIES AT ASSIGNED

                           TEMPERATURE AND PRESSURE

 CASE =                

             REACTANT                    WT FRACTION      ENERGY      TEMP
                                          (SEE NOTE)     KJ/KG-MOL      K  
             H2                           1.0000000         0.000      0.000

 O/F=    0.00000  %FUEL=100.000000  R,EQ.RATIO= 0.000000  PHI,EQ.RATIO= 0.000000

 THERMODYNAMIC PROPERTIES

 P, BAR           0.00110  0.00110  0.00110  0.00110  0.00110  0.00110  0.00110  0.00110
 T, K             3760.00  3770.00  3780.00  3790.00  3800.00  3810.00  3820.00  3830.00
 RHO, KG/CU M    3.5502-6 3.5407-6 3.5312-6 3.5217-6 3.5123-6 3.5030-6 3.4937-6 3.4845-6
 H, KJ/KG        287194.3 287419.0 287642.8 287865.9 288088.3 288310.0 288531.0 288751.4
 U, KJ/KG        256210.5 256351.5 256491.7 256631.2 256770.1 256908.3 257045.9 257182.9
 G, KJ/KG       -548129.9-550351.8-552574.3-554797.4-557021.1-559245.3-561470.2-563695.6
 S, KJ/(KG)(K)   222.1607 222.2204 222.2797 222.3386 222.3972 222.4555 222.5134 222.5710

 M, (1/n)           1.009    1.009    1.009    1.009    1.009    1.009    1.009    1.009
 (dLV/dLP)t      -1.00104 -1.00100 -1.00097 -1.00093 -1.00089 -1.00086 -1.00083 -1.00080
 (dLV/dLT)p        1.0154   1.0148   1.0142   1.0136   1.0131   1.0126   1.0121   1.0116
 Cp, KJ/(KG)(K)   22.5045  22.4235  22.3463  22.2729  22.2029  22.1362  22.0727  22.0122
 GAMMAs            1.6039   1.6064   1.6087   1.6110   1.6131   1.6152   1.6172   1.6191
 SON VEL,M/SEC     7049.5   7064.4   7079.1   7093.5   7107.8   7121.8   7135.7   7149.4

 TRANSPORT PROPERTIES (GASES ONLY)
   CONDUCTIVITY IN UNITS OF MILLIWATTS/(CM)(K)

 VISC,MILLIPOISE  0.43081  0.43172  0.43262  0.43353  0.43444  0.43535  0.43626  0.43717

  WITH EQUILIBRIUM REACTIONS

 Cp, KJ/(KG)(K)   22.5045  22.4235  22.3463  22.2729  22.2029  22.1362  22.0727  22.0122
 CONDUCTIVITY     14.7819  14.7502  14.7213  14.6950  14.6711  14.6497  14.6304  14.6134
 PRANDTL NUMBER    0.6559   0.6563   0.6567   0.6571   0.6575   0.6578   0.6582   0.6585

  WITH FROZEN REACTIONS

 Cp, KJ/(KG)(K)   20.6195  20.6196  20.6198  20.6199  20.6200  20.6201  20.6202  20.6203
 CONDUCTIVITY     13.3126  13.3412  13.3698  13.3984  13.4270  13.4556  13.4842  13.5128
 PRANDTL NUMBER    0.6673   0.6672   0.6672   0.6672   0.6672   0.6672   0.6671   0.6671

 MOLE FRACTIONS

 *H               0.99895  0.99899  0.99903  0.99907  0.99910  0.99914  0.99917  0.99920
 *H2              0.00105  0.00101  0.00097  0.00093  0.00090  0.00086  0.00083  0.00080

  * THERMODYNAMIC PROPERTIES FITTED TO 20000.K

 NOTE. WEIGHT FRACTION OF FUEL IN TOTAL FUELS AND OF OXIDANT IN TOTAL OXIDANTS









               THERMODYNAMIC EQUILIBRIUM PROPERTIES AT ASSIGNED

                           TEMPERATURE AND PRESSURE

 CASE =                

             REACTANT                    WT FRACTION      ENERGY      TEMP
                                          (SEE NOTE)     KJ/KG-MOL      K  
             H2                           1.0000000         0.000      0.000

 O/F=    0.00000  %FUEL=100.000000  R,EQ.RATIO= 0.000000  PHI,EQ.RATIO= 0.000000

 THERMODYNAMIC PROPERTIES

 P, BAR           0.00110  0.00110  0.00110  0.00110  0.00110  0.00110  0.00120  0.00120
 T, K             3840.00  3850.00  3860.00  3870.00  3880.00  3890.00  3750.00  3760.00
 RHO, KG/CU M    3.4753-6 3.4662-6 3.4571-6 3.4481-6 3.4391-6 3.4302-6 3.8839-6 3.8734-6
 H, KJ/KG        288971.3 289190.5 289409.3 289627.5 289845.2 290062.5 286923.6 287150.8
 U, KJ/KG        257319.4 257455.4 257590.8 257725.7 257860.2 257994.3 256026.5 256169.9
 G, KJ/KG       -565921.6-568148.2-570375.3-572603.0-574831.3-577060.1-543220.1-545434.1
 S, KJ/(KG)(K)   222.6284 222.6854 222.7421 222.7986 222.8548 222.9107 221.3717 221.4322

 M, (1/n)           1.009    1.009    1.009    1.009    1.009    1.009    1.009    1.009
 (dLV/dLP)t      -1.00077 -1.00074 -1.00071 -1.00069 -1.00066 -1.00064 -1.00118 -1.00114
 (dLV/dLT)p        1.0111   1.0107   1.0103   1.0099   1.0095   1.0091   1.0176   1.0168
 Cp, KJ/(KG)(K)   21.9545  21.8995  21.8470  21.7970  21.7493  21.7038  22.7667  22.6740
 GAMMAs            1.6210   1.6227   1.6244   1.6261   1.6276   1.6291   1.5963   1.5990
 SON VEL,M/SEC     7162.9   7176.2   7189.4   7202.4   7215.2   7227.9   7022.8   7038.3

 TRANSPORT PROPERTIES (GASES ONLY)
   CONDUCTIVITY IN UNITS OF MILLIWATTS/(CM)(K)

 VISC,MILLIPOISE  0.43809  0.43900  0.43991  0.44082  0.44174  0.44265  0.42999  0.43089

  WITH EQUILIBRIUM REACTIONS

 Cp, KJ/(KG)(K)   21.9545  21.8995  21.8470  21.7970  21.7493  21.7038  22.7667  22.6740
 CONDUCTIVITY     14.5983  14.5852  14.5739  14.5643  14.5564  14.5501  14.9562  14.9159
 PRANDTL NUMBER    0.6588   0.6592   0.6594   0.6597   0.6600   0.6603   0.6545   0.6550

  WITH FROZEN REACTIONS

 Cp, KJ/(KG)(K)   20.6204  20.6205  20.6206  20.6207  20.6208  20.6208  20.6191  20.6192
 CONDUCTIVITY     13.5413  13.5699  13.5985  13.6271  13.6556  13.6842  13.2854  13.3139
 PRANDTL NUMBER    0.6671   0.6671   0.6671   0.6671   0.6670   0.6670   0.6673   0.6673

 MOLE FRACTIONS

 *H               0.99923  0.99926  0.99928  0.99931  0.99934  0.99936  0.99881  0.99886
 *H2              0.00077  0.00074  0.00071  0.00069  0.00066  0.00064  0.00119  0.00114

  * THERMODYNAMIC PROPERTIES FITTED TO 20000.K

 NOTE. WEIGHT FRACTION OF FUEL IN TOTAL FUELS AND OF OXIDANT IN TOTAL OXIDANTS









               THERMODYNAMIC EQUILIBRIUM PROPERTIES AT ASSIGNED

                           TEMPERATURE AND PRESSURE

 CASE =                

             REACTANT                    WT FRACTION      ENERGY      TEMP
                                          (SEE NOTE)     KJ/KG-MOL      K  
             H2                           1.0000000         0.000      0.000

 O/F=    0.00000  %FUEL=100.000000  R,EQ.RATIO= 0.000000  PHI,EQ.RATIO= 0.000000

 THERMODYNAMIC PROPERTIES

 P, BAR           0.00120  0.00120  0.00120  0.00120  0.00120  0.00120  0.00120  0.00120
 T, K             3770.00  3780.00  3790.00  3800.00  3810.00  3820.00  3830.00  3840.00
 RHO, KG/CU M    3.8629-6 3.8525-6 3.8422-6 3.8319-6 3.8218-6 3.8116-6 3.8015-6 3.7915-6
 H, KJ/KG        287377.1 287602.6 287827.2 288051.0 288274.1 288496.5 288718.2 288939.2
 U, KJ/KG        256312.5 256454.2 256595.1 256735.4 256874.9 257013.7 257152.0 257289.6
 G, KJ/KG       -547648.7-549863.9-552079.7-554296.1-556513.1-558730.7-560948.9-563167.6
 S, KJ/(KG)(K)   221.4923 221.5520 221.6113 221.6703 221.7289 221.7872 221.8452 221.9028

 M, (1/n)           1.009    1.009    1.009    1.009    1.009    1.009    1.009    1.009
 (dLV/dLP)t      -1.00109 -1.00105 -1.00101 -1.00098 -1.00094 -1.00090 -1.00087 -1.00084
 (dLV/dLT)p        1.0162   1.0155   1.0149   1.0143   1.0137   1.0132   1.0126   1.0121
 Cp, KJ/(KG)(K)   22.5857  22.5016  22.4215  22.3452  22.2725  22.2033  22.1372  22.0743
 GAMMAs            1.6016   1.6041   1.6065   1.6088   1.6111   1.6132   1.6153   1.6173
 SON VEL,M/SEC     7053.6   7068.6   7083.4   7098.0   7112.4   7126.6   7140.6   7154.4

 TRANSPORT PROPERTIES (GASES ONLY)
   CONDUCTIVITY IN UNITS OF MILLIWATTS/(CM)(K)

 VISC,MILLIPOISE  0.43179  0.43270  0.43361  0.43451  0.43542  0.43633  0.43724  0.43815

  WITH EQUILIBRIUM REACTIONS

 Cp, KJ/(KG)(K)   22.5857  22.5016  22.4215  22.3452  22.2725  22.2033  22.1372  22.0743
 CONDUCTIVITY     14.8788  14.8446  14.8133  14.7847  14.7587  14.7351  14.7139  14.6949
 PRANDTL NUMBER    0.6555   0.6559   0.6563   0.6567   0.6571   0.6575   0.6578   0.6582

  WITH FROZEN REACTIONS

 Cp, KJ/(KG)(K)   20.6194  20.6195  20.6196  20.6198  20.6199  20.6200  20.6201  20.6202
 CONDUCTIVITY     13.3425  13.3710  13.3996  13.4281  13.4567  13.4852  13.5138  13.5423
 PRANDTL NUMBER    0.6673   0.6673   0.6672   0.6672   0.6672   0.6672   0.6672   0.6671

 MOLE FRACTIONS

 *H               0.99890  0.99894  0.99898  0.99902  0.99906  0.99909  0.99913  0.99916
 *H2              0.00110  0.00106  0.00102  0.00098  0.00094  0.00091  0.00087  0.00084

  * THERMODYNAMIC PROPERTIES FITTED TO 20000.K

 NOTE. WEIGHT FRACTION OF FUEL IN TOTAL FUELS AND OF OXIDANT IN TOTAL OXIDANTS









               THERMODYNAMIC EQUILIBRIUM PROPERTIES AT ASSIGNED

                           TEMPERATURE AND PRESSURE

 CASE =                

             REACTANT                    WT FRACTION      ENERGY      TEMP
                                          (SEE NOTE)     KJ/KG-MOL      K  
             H2                           1.0000000         0.000      0.000

 O/F=    0.00000  %FUEL=100.000000  R,EQ.RATIO= 0.000000  PHI,EQ.RATIO= 0.000000

 THERMODYNAMIC PROPERTIES

 P, BAR           0.00120  0.00120  0.00120  0.00120  0.00120  0.00132  0.00132  0.00132
 T, K             3850.00  3860.00  3870.00  3880.00  3890.00  3750.00  3760.00  3770.00
 RHO, KG/CU M    3.7815-6 3.7716-6 3.7618-6 3.7520-6 3.7422-6 4.2727-6 4.2612-6 4.2497-6
 H, KJ/KG        289159.7 289379.5 289598.8 289817.6 290035.8 286869.4 287098.7 287327.0
 U, KJ/KG        257426.6 257563.1 257699.1 257834.5 257969.5 255975.9 256121.3 256265.7
 G, KJ/KG       -565386.9-567606.8-569827.3-572048.3-574269.9-540275.4-542481.4-544688.1
 S, KJ/(KG)(K)   221.9602 222.0172 222.0739 222.1304 222.1866 220.5720 220.6330 220.6936

 M, (1/n)           1.009    1.009    1.009    1.009    1.009    1.009    1.009    1.009
 (dLV/dLP)t      -1.00081 -1.00078 -1.00075 -1.00072 -1.00070 -1.00130 -1.00125 -1.00120
 (dLV/dLT)p        1.0117   1.0112   1.0108   1.0104   1.0100   1.0193   1.0185   1.0178
 Cp, KJ/(KG)(K)   22.0143  21.9571  21.9025  21.8505  21.8008  22.9790  22.8771  22.7801
 GAMMAs            1.6192   1.6210   1.6227   1.6244   1.6260   1.5903   1.5932   1.5960
 SON VEL,M/SEC     7168.0   7181.5   7194.8   7207.9   7220.8   7009.3   7025.2   7040.9

 TRANSPORT PROPERTIES (GASES ONLY)
   CONDUCTIVITY IN UNITS OF MILLIWATTS/(CM)(K)

 VISC,MILLIPOISE  0.43906  0.43997  0.44088  0.44179  0.44270  0.43009  0.43099  0.43189

  WITH EQUILIBRIUM REACTIONS

 Cp, KJ/(KG)(K)   22.0143  21.9571  21.9025  21.8505  21.8008  22.9790  22.8771  22.7801
 CONDUCTIVITY     14.6779  14.6630  14.6500  14.6388  14.6293  15.1238  15.0766  15.0329
 PRANDTL NUMBER    0.6585   0.6588   0.6591   0.6594   0.6597   0.6535   0.6540   0.6545

  WITH FROZEN REACTIONS

 Cp, KJ/(KG)(K)   20.6203  20.6204  20.6205  20.6206  20.6207  20.6187  20.6189  20.6191
 CONDUCTIVITY     13.5709  13.5994  13.6279  13.6565  13.6850  13.2870  13.3155  13.3440
 PRANDTL NUMBER    0.6671   0.6671   0.6671   0.6671   0.6671   0.6674   0.6674   0.6674

 MOLE FRACTIONS

 *H               0.99919  0.99922  0.99925  0.99928  0.99930  0.99869  0.99874  0.99879
 *H2              0.00081  0.00078  0.00075  0.00072  0.00070  0.00131  0.00126  0.00121

  * THERMODYNAMIC PROPERTIES FITTED TO 20000.K

 NOTE. WEIGHT FRACTION OF FUEL IN TOTAL FUELS AND OF OXIDANT IN TOTAL OXIDANTS









               THERMODYNAMIC EQUILIBRIUM PROPERTIES AT ASSIGNED

                           TEMPERATURE AND PRESSURE

 CASE =                

             REACTANT                    WT FRACTION      ENERGY      TEMP
                                          (SEE NOTE)     KJ/KG-MOL      K  
             H2                           1.0000000         0.000      0.000

 O/F=    0.00000  %FUEL=100.000000  R,EQ.RATIO= 0.000000  PHI,EQ.RATIO= 0.000000

 THERMODYNAMIC PROPERTIES

 P, BAR           0.00132  0.00132  0.00132  0.00132  0.00132  0.00132  0.00132  0.00132
 T, K             3780.00  3790.00  3800.00  3810.00  3820.00  3830.00  3840.00  3850.00
 RHO, KG/CU M    4.2382-6 4.2269-6 4.2156-6 4.2043-6 4.1932-6 4.1820-6 4.1710-6 4.1600-6
 H, KJ/KG        287554.3 287780.7 288006.3 288231.1 288455.0 288678.3 288900.8 289122.6
 U, KJ/KG        256409.2 256551.9 256693.7 256834.8 256975.1 257114.8 257253.8 257392.1
 G, KJ/KG       -546895.3-549103.2-551311.6-553520.6-555730.2-557940.4-560151.2-562362.6
 S, KJ/(KG)(K)   220.7539 220.8137 220.8731 220.9322 220.9909 221.0493 221.1073 221.1650

 M, (1/n)           1.009    1.009    1.009    1.009    1.009    1.009    1.009    1.009
 (dLV/dLP)t      -1.00116 -1.00111 -1.00107 -1.00103 -1.00099 -1.00096 -1.00092 -1.00089
 (dLV/dLT)p        1.0170   1.0164   1.0157   1.0151   1.0145   1.0139   1.0134   1.0128
 Cp, KJ/(KG)(K)   22.6877  22.5997  22.5158  22.4359  22.3598  22.2872  22.2180  22.1520
 GAMMAs            1.5987   1.6013   1.6038   1.6062   1.6085   1.6107   1.6129   1.6149
 SON VEL,M/SEC     7056.3   7071.6   7086.6   7101.3   7115.9   7130.2   7144.4   7158.4

 TRANSPORT PROPERTIES (GASES ONLY)
   CONDUCTIVITY IN UNITS OF MILLIWATTS/(CM)(K)

 VISC,MILLIPOISE  0.43279  0.43369  0.43460  0.43550  0.43641  0.43731  0.43822  0.43913

  WITH EQUILIBRIUM REACTIONS

 Cp, KJ/(KG)(K)   22.6877  22.5997  22.5158  22.4359  22.3598  22.2872  22.2180  22.1520
 CONDUCTIVITY     14.9925  14.9552  14.9209  14.8895  14.8607  14.8345  14.8107  14.7892
 PRANDTL NUMBER    0.6549   0.6554   0.6558   0.6562   0.6566   0.6570   0.6574   0.6577

  WITH FROZEN REACTIONS

 Cp, KJ/(KG)(K)   20.6192  20.6194  20.6195  20.6196  20.6198  20.6199  20.6200  20.6201
 CONDUCTIVITY     13.3725  13.4010  13.4295  13.4580  13.4865  13.5150  13.5435  13.5720
 PRANDTL NUMBER    0.6673   0.6673   0.6673   0.6673   0.6672   0.6672   0.6672   0.6672

 MOLE FRACTIONS

 *H               0.99884  0.99888  0.99892  0.99896  0.99900  0.99904  0.99908  0.99911
 *H2              0.00116  0.00112  0.00108  0.00103  0.00100  0.00096  0.00092  0.00089

  * THERMODYNAMIC PROPERTIES FITTED TO 20000.K

 NOTE. WEIGHT FRACTION OF FUEL IN TOTAL FUELS AND OF OXIDANT IN TOTAL OXIDANTS









               THERMODYNAMIC EQUILIBRIUM PROPERTIES AT ASSIGNED

                           TEMPERATURE AND PRESSURE

 CASE =                

             REACTANT                    WT FRACTION      ENERGY      TEMP
                                          (SEE NOTE)     KJ/KG-MOL      K  
             H2                           1.0000000         0.000      0.000

 O/F=    0.00000  %FUEL=100.000000  R,EQ.RATIO= 0.000000  PHI,EQ.RATIO= 0.000000

 THERMODYNAMIC PROPERTIES

 P, BAR           0.00132  0.00132  0.00132  0.00132  0.00148  0.00148  0.00148  0.00148
 T, K             3860.00  3870.00  3880.00  3890.00  3750.00  3760.00  3770.00  3780.00
 RHO, KG/CU M    4.1491-6 4.1383-6 4.1275-6 4.1168-6 4.7914-6 4.7784-6 4.7655-6 4.7526-6
 H, KJ/KG        289343.8 289564.4 289784.4 290003.9 286797.1 287029.2 287260.1 287490.0
 U, KJ/KG        257529.9 257667.1 257803.7 257939.8 255908.6 256056.5 256203.4 256349.2
 G, KJ/KG       -564574.5-566787.0-569000.1-571213.7-536741.2-538937.6-541134.6-543332.2
 S, KJ/(KG)(K)   221.2224 221.2794 221.3362 221.3927 219.6102 219.6720 219.7333 219.7942

 M, (1/n)           1.009    1.009    1.009    1.009    1.009    1.009    1.009    1.009
 (dLV/dLP)t      -1.00085 -1.00082 -1.00079 -1.00077 -1.00146 -1.00140 -1.00135 -1.00130
 (dLV/dLT)p        1.0123   1.0119   1.0114   1.0110   1.0216   1.0207   1.0199   1.0191
 Cp, KJ/(KG)(K)   22.0891  22.0291  21.9718  21.9172  23.2617  23.1476  23.0389  22.9355
 GAMMAs            1.6169   1.6188   1.6206   1.6223   1.5826   1.5857   1.5888   1.5917
 SON VEL,M/SEC     7172.2   7185.7   7199.2   7212.4   6991.7   7008.2   7024.4   7040.4

 TRANSPORT PROPERTIES (GASES ONLY)
   CONDUCTIVITY IN UNITS OF MILLIWATTS/(CM)(K)

 VISC,MILLIPOISE  0.44004  0.44094  0.44185  0.44276  0.43022  0.43112  0.43202  0.43291

  WITH EQUILIBRIUM REACTIONS

 Cp, KJ/(KG)(K)   22.0891  22.0291  21.9718  21.9172  23.2617  23.1476  23.0389  22.9355
 CONDUCTIVITY     14.7699  14.7527  14.7375  14.7242  15.3469  15.2906  15.2382  15.1895
 PRANDTL NUMBER    0.6581   0.6584   0.6587   0.6591   0.6521   0.6526   0.6532   0.6537

  WITH FROZEN REACTIONS

 Cp, KJ/(KG)(K)   20.6202  20.6203  20.6204  20.6205  20.6183  20.6184  20.6186  20.6188
 CONDUCTIVITY     13.6005  13.6290  13.6575  13.6860  13.2891  13.3175  13.3460  13.3744
 PRANDTL NUMBER    0.6672   0.6671   0.6671   0.6671   0.6675   0.6675   0.6674   0.6674

 MOLE FRACTIONS

 *H               0.99914  0.99917  0.99920  0.99923  0.99854  0.99859  0.99865  0.99870
 *H2              0.00086  0.00083  0.00080  0.00077  0.00146  0.00141  0.00135  0.00130

  * THERMODYNAMIC PROPERTIES FITTED TO 20000.K

 NOTE. WEIGHT FRACTION OF FUEL IN TOTAL FUELS AND OF OXIDANT IN TOTAL OXIDANTS









               THERMODYNAMIC EQUILIBRIUM PROPERTIES AT ASSIGNED

                           TEMPERATURE AND PRESSURE

 CASE =                

             REACTANT                    WT FRACTION      ENERGY      TEMP
                                          (SEE NOTE)     KJ/KG-MOL      K  
             H2                           1.0000000         0.000      0.000

 O/F=    0.00000  %FUEL=100.000000  R,EQ.RATIO= 0.000000  PHI,EQ.RATIO= 0.000000

 THERMODYNAMIC PROPERTIES

 P, BAR           0.00148  0.00148  0.00148  0.00148  0.00148  0.00148  0.00148  0.00148
 T, K             3790.00  3800.00  3810.00  3820.00  3830.00  3840.00  3850.00  3860.00
 RHO, KG/CU M    4.7398-6 4.7271-6 4.7145-6 4.7020-6 4.6895-6 4.6771-6 4.6648-6 4.6525-6
 H, KJ/KG        287718.8 287946.7 288173.7 288399.8 288625.1 288849.6 289073.3 289296.3
 U, KJ/KG        256494.2 256638.2 256781.4 256923.7 257065.3 257206.1 257346.2 257485.6
 G, KJ/KG       -545530.5-547729.3-549928.8-552128.8-554329.4-556530.7-558732.5-560934.9
 S, KJ/(KG)(K)   219.8547 219.9148 219.9744 220.0337 220.0926 220.1511 220.2093 220.2671

 M, (1/n)           1.009    1.009    1.009    1.009    1.009    1.009    1.009    1.009
 (dLV/dLP)t      -1.00125 -1.00120 -1.00116 -1.00111 -1.00107 -1.00103 -1.00099 -1.00096
 (dLV/dLT)p        1.0183   1.0176   1.0169   1.0162   1.0156   1.0150   1.0144   1.0138
 Cp, KJ/(KG)(K)   22.8369  22.7430  22.6535  22.5682  22.4869  22.4094  22.3355  22.2650
 GAMMAs            1.5945   1.5973   1.5999   1.6024   1.6048   1.6072   1.6094   1.6116
 SON VEL,M/SEC     7056.1   7071.6   7086.9   7101.9   7116.7   7131.3   7145.7   7159.9

 TRANSPORT PROPERTIES (GASES ONLY)
   CONDUCTIVITY IN UNITS OF MILLIWATTS/(CM)(K)

 VISC,MILLIPOISE  0.43381  0.43471  0.43561  0.43651  0.43742  0.43832  0.43922  0.44013

  WITH EQUILIBRIUM REACTIONS

 Cp, KJ/(KG)(K)   22.8369  22.7430  22.6535  22.5682  22.4869  22.4094  22.3355  22.2650
 CONDUCTIVITY     15.1442  15.1023  15.0636  15.0279  14.9951  14.9649  14.9374  14.9123
 PRANDTL NUMBER    0.6542   0.6546   0.6551   0.6555   0.6560   0.6564   0.6568   0.6571

  WITH FROZEN REACTIONS

 Cp, KJ/(KG)(K)   20.6190  20.6191  20.6193  20.6194  20.6196  20.6197  20.6198  20.6199
 CONDUCTIVITY     13.4028  13.4312  13.4597  13.4881  13.5166  13.5450  13.5735  13.6019
 PRANDTL NUMBER    0.6674   0.6674   0.6673   0.6673   0.6673   0.6673   0.6672   0.6672

 MOLE FRACTIONS

 *H               0.99875  0.99879  0.99884  0.99888  0.99892  0.99896  0.99900  0.99904
 *H2              0.00125  0.00121  0.00116  0.00112  0.00108  0.00104  0.00100  0.00096

  * THERMODYNAMIC PROPERTIES FITTED TO 20000.K

 NOTE. WEIGHT FRACTION OF FUEL IN TOTAL FUELS AND OF OXIDANT IN TOTAL OXIDANTS









               THERMODYNAMIC EQUILIBRIUM PROPERTIES AT ASSIGNED

                           TEMPERATURE AND PRESSURE

 CASE =                

             REACTANT                    WT FRACTION      ENERGY      TEMP
                                          (SEE NOTE)     KJ/KG-MOL      K  
             H2                           1.0000000         0.000      0.000

 O/F=    0.00000  %FUEL=100.000000  R,EQ.RATIO= 0.000000  PHI,EQ.RATIO= 0.000000

 THERMODYNAMIC PROPERTIES

 P, BAR           0.00148  0.00148  0.00148  0.00165  0.00165  0.00165  0.00165  0.00165
 T, K             3870.00  3880.00  3890.00  3750.00  3760.00  3770.00  3780.00  3790.00
 RHO, KG/CU M    4.6403-6 4.6282-6 4.6162-6 5.3427-6 5.3281-6 5.3137-6 5.2993-6 5.2850-6
 H, KJ/KG        289518.6 289740.3 289961.3 286720.4 286955.4 287189.2 287421.7 287653.1
 U, KJ/KG        257624.4 257762.6 257900.2 255837.0 255987.7 256137.2 256285.6 256433.0
 G, KJ/KG       -563137.8-565341.3-567545.4-533382.8-535570.1-537758.0-539946.5-542135.6
 S, KJ/(KG)(K)   220.3247 220.3819 220.4387 218.6942 218.7568 218.8189 218.8805 218.9416

 M, (1/n)           1.009    1.009    1.009    1.010    1.010    1.009    1.009    1.009
 (dLV/dLP)t      -1.00092 -1.00089 -1.00086 -1.00162 -1.00156 -1.00150 -1.00145 -1.00139
 (dLV/dLT)p        1.0133   1.0128   1.0123   1.0241   1.0231   1.0222   1.0213   1.0204
 Cp, KJ/(KG)(K)   22.1977  22.1335  22.0723  23.5614  23.4344  23.3135  23.1983  23.0886
 GAMMAs            1.6136   1.6156   1.6175   1.5747   1.5781   1.5814   1.5845   1.5876
 SON VEL,M/SEC     7173.9   7187.8   7201.4   6973.7   6990.7   7007.4   7023.9   7040.2

 TRANSPORT PROPERTIES (GASES ONLY)
   CONDUCTIVITY IN UNITS OF MILLIWATTS/(CM)(K)

 VISC,MILLIPOISE  0.44103  0.44194  0.44285  0.43037  0.43126  0.43215  0.43304  0.43394

  WITH EQUILIBRIUM REACTIONS

 Cp, KJ/(KG)(K)   22.1977  22.1335  22.0723  23.5614  23.4344  23.3135  23.1983  23.0886
 CONDUCTIVITY     14.8896  14.8691  14.8507  15.5835  15.5176  15.4559  15.3984  15.3448
 PRANDTL NUMBER    0.6575   0.6579   0.6582   0.6507   0.6513   0.6518   0.6524   0.6529

  WITH FROZEN REACTIONS

 Cp, KJ/(KG)(K)   20.6200  20.6202  20.6203  20.6178  20.6180  20.6182  20.6184  20.6186
 CONDUCTIVITY     13.6304  13.6588  13.6873  13.2914  13.3197  13.3481  13.3764  13.4048
 PRANDTL NUMBER    0.6672   0.6672   0.6672   0.6676   0.6676   0.6675   0.6675   0.6675

 MOLE FRACTIONS

 *H               0.99907  0.99911  0.99914  0.99837  0.99843  0.99849  0.99855  0.99860
 *H2              0.00093  0.00089  0.00086  0.00163  0.00157  0.00151  0.00145  0.00140

  * THERMODYNAMIC PROPERTIES FITTED TO 20000.K

 NOTE. WEIGHT FRACTION OF FUEL IN TOTAL FUELS AND OF OXIDANT IN TOTAL OXIDANTS









               THERMODYNAMIC EQUILIBRIUM PROPERTIES AT ASSIGNED

                           TEMPERATURE AND PRESSURE

 CASE =                

             REACTANT                    WT FRACTION      ENERGY      TEMP
                                          (SEE NOTE)     KJ/KG-MOL      K  
             H2                           1.0000000         0.000      0.000

 O/F=    0.00000  %FUEL=100.000000  R,EQ.RATIO= 0.000000  PHI,EQ.RATIO= 0.000000

 THERMODYNAMIC PROPERTIES

 P, BAR           0.00165  0.00165  0.00165  0.00165  0.00165  0.00165  0.00165  0.00165
 T, K             3800.00  3810.00  3820.00  3830.00  3840.00  3850.00  3860.00  3870.00
 RHO, KG/CU M    5.2709-6 5.2568-6 5.2427-6 5.2288-6 5.2150-6 5.2012-6 5.1875-6 5.1739-6
 H, KJ/KG        287883.5 288112.8 288341.2 288568.6 288795.2 289020.9 289245.8 289470.0
 U, KJ/KG        256579.3 256724.7 256869.1 257012.7 257155.5 257297.4 257438.7 257579.1
 G, KJ/KG       -544325.3-546515.6-548706.5-550898.1-553090.2-555282.9-557476.2-559670.0
 S, KJ/(KG)(K)   219.0023 219.0626 219.1224 219.1819 219.2410 219.2997 219.3580 219.4160

 M, (1/n)           1.009    1.009    1.009    1.009    1.009    1.009    1.009    1.009
 (dLV/dLP)t      -1.00134 -1.00129 -1.00124 -1.00119 -1.00115 -1.00111 -1.00107 -1.00103
 (dLV/dLT)p        1.0196   1.0188   1.0181   1.0174   1.0167   1.0160   1.0154   1.0148
 Cp, KJ/(KG)(K)   22.9840  22.8844  22.7894  22.6989  22.6125  22.5302  22.4516  22.3767
 GAMMAs            1.5905   1.5933   1.5961   1.5987   1.6012   1.6037   1.6060   1.6083
 SON VEL,M/SEC     7056.2   7071.9   7087.4   7102.7   7117.8   7132.6   7147.2   7161.7

 TRANSPORT PROPERTIES (GASES ONLY)
   CONDUCTIVITY IN UNITS OF MILLIWATTS/(CM)(K)

 VISC,MILLIPOISE  0.43483  0.43573  0.43663  0.43753  0.43842  0.43933  0.44023  0.44113

  WITH EQUILIBRIUM REACTIONS

 Cp, KJ/(KG)(K)   22.9840  22.8844  22.7894  22.6989  22.6125  22.5302  22.4516  22.3767
 CONDUCTIVITY     15.2948  15.2484  15.2054  15.1655  15.1286  15.0947  15.0635  15.0349
 PRANDTL NUMBER    0.6534   0.6539   0.6544   0.6549   0.6553   0.6557   0.6561   0.6565

  WITH FROZEN REACTIONS

 Cp, KJ/(KG)(K)   20.6187  20.6189  20.6191  20.6192  20.6194  20.6195  20.6196  20.6198
 CONDUCTIVITY     13.4331  13.4615  13.4899  13.5183  13.5467  13.5751  13.6035  13.6319
 PRANDTL NUMBER    0.6674   0.6674   0.6674   0.6673   0.6673   0.6673   0.6673   0.6673

 MOLE FRACTIONS

 *H               0.99866  0.99871  0.99875  0.99880  0.99885  0.99889  0.99893  0.99897
 *H2              0.00134  0.00129  0.00124  0.00120  0.00115  0.00111  0.00107  0.00103

  * THERMODYNAMIC PROPERTIES FITTED TO 20000.K

 NOTE. WEIGHT FRACTION OF FUEL IN TOTAL FUELS AND OF OXIDANT IN TOTAL OXIDANTS









               THERMODYNAMIC EQUILIBRIUM PROPERTIES AT ASSIGNED

                           TEMPERATURE AND PRESSURE

 CASE =                

             REACTANT                    WT FRACTION      ENERGY      TEMP
                                          (SEE NOTE)     KJ/KG-MOL      K  
             H2                           1.0000000         0.000      0.000

 O/F=    0.00000  %FUEL=100.000000  R,EQ.RATIO= 0.000000  PHI,EQ.RATIO= 0.000000

 THERMODYNAMIC PROPERTIES

 P, BAR           0.00165  0.00165  0.00180  0.00180  0.00180  0.00180  0.00180  0.00180
 T, K             3880.00  3890.00  3750.00  3760.00  3770.00  3780.00  3790.00  3800.00
 RHO, KG/CU M    5.1604-6 5.1469-6 5.8292-6 5.8133-6 5.7975-6 5.7818-6 5.7662-6 5.7507-6
 H, KJ/KG        289693.4 289916.1 286652.8 286890.4 287126.6 287361.5 287595.2 287827.8
 U, KJ/KG        257719.0 257858.1 255774.0 255927.1 256078.9 256229.5 256379.0 256527.4
 G, KJ/KG       -561864.5-564059.5-530695.8-532875.7-535056.3-537237.4-539419.2-541601.6
 S, KJ/(KG)(K)   219.4737 219.5310 217.9596 218.0229 218.0856 218.1479 218.2096 218.2709

 M, (1/n)           1.009    1.009    1.010    1.010    1.010    1.010    1.009    1.009
 (dLV/dLP)t      -1.00099 -1.00096 -1.00177 -1.00170 -1.00164 -1.00158 -1.00152 -1.00146
 (dLV/dLT)p        1.0142   1.0137   1.0263   1.0252   1.0242   1.0232   1.0223   1.0214
 Cp, KJ/(KG)(K)   22.3052  22.2369  23.8254  23.6871  23.5553  23.4299  23.3103  23.1964
 GAMMAs            1.6105   1.6125   1.5680   1.5716   1.5750   1.5784   1.5816   1.5847
 SON VEL,M/SEC     7175.9   7189.9   6958.2   6975.7   6992.9   7009.8   7026.5   7042.9

 TRANSPORT PROPERTIES (GASES ONLY)
   CONDUCTIVITY IN UNITS OF MILLIWATTS/(CM)(K)

 VISC,MILLIPOISE  0.44203  0.44293  0.43050  0.43138  0.43227  0.43316  0.43405  0.43494

  WITH EQUILIBRIUM REACTIONS

 Cp, KJ/(KG)(K)   22.3052  22.2369  23.8254  23.6871  23.5553  23.4299  23.3103  23.1964
 CONDUCTIVITY     15.0087  14.9850  15.7920  15.7176  15.6478  15.5825  15.5215  15.4645
 PRANDTL NUMBER    0.6569   0.6573   0.6495   0.6501   0.6507   0.6513   0.6519   0.6524

  WITH FROZEN REACTIONS

 Cp, KJ/(KG)(K)   20.6199  20.6200  20.6173  20.6176  20.6178  20.6180  20.6182  20.6184
 CONDUCTIVITY     13.6603  13.6887  13.2934  13.3217  13.3499  13.3782  13.4065  13.4348
 PRANDTL NUMBER    0.6672   0.6672   0.6677   0.6676   0.6676   0.6676   0.6675   0.6675

 MOLE FRACTIONS

 *H               0.99900  0.99904  0.99822  0.99829  0.99835  0.99842  0.99848  0.99853
 *H2              0.00099  0.00096  0.00178  0.00171  0.00165  0.00158  0.00152  0.00147

  * THERMODYNAMIC PROPERTIES FITTED TO 20000.K

 NOTE. WEIGHT FRACTION OF FUEL IN TOTAL FUELS AND OF OXIDANT IN TOTAL OXIDANTS









               THERMODYNAMIC EQUILIBRIUM PROPERTIES AT ASSIGNED

                           TEMPERATURE AND PRESSURE

 CASE =                

             REACTANT                    WT FRACTION      ENERGY      TEMP
                                          (SEE NOTE)     KJ/KG-MOL      K  
             H2                           1.0000000         0.000      0.000

 O/F=    0.00000  %FUEL=100.000000  R,EQ.RATIO= 0.000000  PHI,EQ.RATIO= 0.000000

 THERMODYNAMIC PROPERTIES

 P, BAR           0.00180  0.00180  0.00180  0.00180  0.00180  0.00180  0.00180  0.00180
 T, K             3810.00  3820.00  3830.00  3840.00  3850.00  3860.00  3870.00  3880.00
 RHO, KG/CU M    5.7353-6 5.7200-6 5.7048-6 5.6896-6 5.6746-6 5.6597-6 5.6448-6 5.6300-6
 H, KJ/KG        288059.2 288289.5 288518.9 288747.3 288974.7 289201.3 289427.1 289652.0
 U, KJ/KG        256674.7 256821.0 256966.4 257110.8 257254.5 257397.2 257539.2 257680.5
 G, KJ/KG       -543784.6-545968.3-548152.5-550337.3-552522.7-554708.7-556895.3-559082.5
 S, KJ/(KG)(K)   218.3317 218.3921 218.4521 218.5116 218.5708 218.6295 218.6879 218.7460

 M, (1/n)           1.009    1.009    1.009    1.009    1.009    1.009    1.009    1.009
 (dLV/dLP)t      -1.00140 -1.00135 -1.00130 -1.00125 -1.00121 -1.00116 -1.00112 -1.00108
 (dLV/dLT)p        1.0205   1.0197   1.0189   1.0182   1.0175   1.0168   1.0161   1.0155
 Cp, KJ/(KG)(K)   23.0878  22.9843  22.8856  22.7915  22.7018  22.6161  22.5344  22.4565
 GAMMAs            1.5877   1.5906   1.5934   1.5961   1.5987   1.6012   1.6037   1.6060
 SON VEL,M/SEC     7059.0   7074.9   7090.6   7106.0   7121.3   7136.2   7151.0   7165.6

 TRANSPORT PROPERTIES (GASES ONLY)
   CONDUCTIVITY IN UNITS OF MILLIWATTS/(CM)(K)

 VISC,MILLIPOISE  0.43583  0.43673  0.43762  0.43852  0.43941  0.44031  0.44121  0.44211

  WITH EQUILIBRIUM REACTIONS

 Cp, KJ/(KG)(K)   23.0878  22.9843  22.8856  22.7915  22.7018  22.6161  22.5344  22.4565
 CONDUCTIVITY     15.4113  15.3618  15.3157  15.2729  15.2333  15.1967  15.1629  15.1319
 PRANDTL NUMBER    0.6529   0.6534   0.6539   0.6544   0.6548   0.6553   0.6557   0.6561

  WITH FROZEN REACTIONS

 Cp, KJ/(KG)(K)   20.6186  20.6187  20.6189  20.6191  20.6192  20.6194  20.6195  20.6196
 CONDUCTIVITY     13.4631  13.4915  13.5198  13.5481  13.5765  13.6048  13.6332  13.6616
 PRANDTL NUMBER    0.6675   0.6674   0.6674   0.6674   0.6674   0.6673   0.6673   0.6673

 MOLE FRACTIONS

 *H               0.99859  0.99864  0.99869  0.99874  0.99879  0.99883  0.99887  0.99891
 *H2              0.00141  0.00136  0.00131  0.00126  0.00121  0.00117  0.00113  0.00108

  * THERMODYNAMIC PROPERTIES FITTED TO 20000.K

 NOTE. WEIGHT FRACTION OF FUEL IN TOTAL FUELS AND OF OXIDANT IN TOTAL OXIDANTS









               THERMODYNAMIC EQUILIBRIUM PROPERTIES AT ASSIGNED

                           TEMPERATURE AND PRESSURE

 CASE =                

             REACTANT                    WT FRACTION      ENERGY      TEMP
                                          (SEE NOTE)     KJ/KG-MOL      K  
             H2                           1.0000000         0.000      0.000

 O/F=    0.00000  %FUEL=100.000000  R,EQ.RATIO= 0.000000  PHI,EQ.RATIO= 0.000000

 THERMODYNAMIC PROPERTIES

 P, BAR           0.00180  0.00200  0.00200  0.00200  0.00200  0.00200  0.00200  0.00200
 T, K             3890.00  3750.00  3760.00  3770.00  3780.00  3790.00  3800.00  3810.00
 RHO, KG/CU M    5.6153-6 6.4782-6 6.4605-6 6.4429-6 6.4254-6 6.4080-6 6.3907-6 6.3736-6
 H, KJ/KG        289876.2 286562.8 286803.8 287043.3 287281.4 287518.1 287753.5 287987.7
 U, KJ/KG        257821.0 255690.0 255846.3 256001.2 256154.8 256307.1 256458.2 256608.1
 G, KJ/KG       -561270.2-527442.7-529613.7-531785.4-533957.6-536130.5-538304.1-540478.2
 S, KJ/(KG)(K)   218.8037 217.0681 217.1323 217.1959 217.2590 217.3215 217.3836 217.4451

 M, (1/n)           1.009    1.010    1.010    1.010    1.010    1.010    1.010    1.010
 (dLV/dLP)t      -1.00104 -1.00197 -1.00189 -1.00182 -1.00175 -1.00168 -1.00162 -1.00156
 (dLV/dLT)p        1.0149   1.0291   1.0280   1.0268   1.0257   1.0247   1.0237   1.0228
 Cp, KJ/(KG)(K)   22.3821  24.1767  24.0233  23.8772  23.7381  23.6054  23.4791  23.3586
 GAMMAs            1.6082   1.5593   1.5631   1.5668   1.5704   1.5739   1.5772   1.5805
 SON VEL,M/SEC     7180.0   6938.4   6956.4   6974.1   6991.6   7008.8   7025.7   7042.3

 TRANSPORT PROPERTIES (GASES ONLY)
   CONDUCTIVITY IN UNITS OF MILLIWATTS/(CM)(K)

 VISC,MILLIPOISE  0.44301  0.43067  0.43155  0.43243  0.43331  0.43419  0.43508  0.43597

  WITH EQUILIBRIUM REACTIONS

 Cp, KJ/(KG)(K)   22.3821  24.1767  24.0233  23.8772  23.7381  23.6054  23.4791  23.3586
 CONDUCTIVITY     15.1034  16.0695  15.9838  15.9032  15.8276  15.7567  15.6903  15.6281
 PRANDTL NUMBER    0.6565   0.6479   0.6486   0.6492   0.6499   0.6505   0.6511   0.6516

  WITH FROZEN REACTIONS

 Cp, KJ/(KG)(K)   20.6198  20.6168  20.6170  20.6173  20.6175  20.6177  20.6179  20.6181
 CONDUCTIVITY     13.6899  13.2961  13.3242  13.3524  13.3806  13.4088  13.4371  13.4653
 PRANDTL NUMBER    0.6673   0.6678   0.6677   0.6677   0.6677   0.6676   0.6676   0.6676

 MOLE FRACTIONS

 *H               0.99895  0.99802  0.99810  0.99817  0.99824  0.99831  0.99837  0.99843
 *H2              0.00105  0.00198  0.00190  0.00183  0.00176  0.00169  0.00163  0.00157

  * THERMODYNAMIC PROPERTIES FITTED TO 20000.K

 NOTE. WEIGHT FRACTION OF FUEL IN TOTAL FUELS AND OF OXIDANT IN TOTAL OXIDANTS









               THERMODYNAMIC EQUILIBRIUM PROPERTIES AT ASSIGNED

                           TEMPERATURE AND PRESSURE

 CASE =                

             REACTANT                    WT FRACTION      ENERGY      TEMP
                                          (SEE NOTE)     KJ/KG-MOL      K  
             H2                           1.0000000         0.000      0.000

 O/F=    0.00000  %FUEL=100.000000  R,EQ.RATIO= 0.000000  PHI,EQ.RATIO= 0.000000

 THERMODYNAMIC PROPERTIES

 P, BAR           0.00200  0.00200  0.00200  0.00200  0.00200  0.00200  0.00200  0.00200
 T, K             3820.00  3830.00  3840.00  3850.00  3860.00  3870.00  3880.00  3890.00
 RHO, KG/CU M    6.3565-6 6.3396-6 6.3227-6 6.3060-6 6.2893-6 6.2728-6 6.2563-6 6.2400-6
 H, KJ/KG        288220.7 288452.6 288683.4 288913.2 289142.0 289369.9 289596.9 289823.1
 U, KJ/KG        256756.9 256904.6 257051.4 257197.2 257342.1 257486.1 257629.2 257771.6
 G, KJ/KG       -542653.0-544828.3-547004.3-549180.9-551358.0-553535.8-555714.1-557893.1
 S, KJ/(KG)(K)   217.5062 217.5668 217.6270 217.6868 217.7461 217.8051 217.8637 217.9219

 M, (1/n)           1.009    1.009    1.009    1.009    1.009    1.009    1.009    1.009
 (dLV/dLP)t      -1.00150 -1.00145 -1.00139 -1.00134 -1.00129 -1.00125 -1.00120 -1.00116
 (dLV/dLT)p        1.0219   1.0210   1.0202   1.0194   1.0186   1.0179   1.0172   1.0166
 Cp, KJ/(KG)(K)   23.2438  23.1343  23.0299  22.9303  22.8352  22.7446  22.6580  22.5754
 GAMMAs            1.5836   1.5866   1.5895   1.5923   1.5950   1.5976   1.6002   1.6026
 SON VEL,M/SEC     7058.7   7074.9   7090.8   7106.5   7121.9   7137.2   7152.2   7167.0

 TRANSPORT PROPERTIES (GASES ONLY)
   CONDUCTIVITY IN UNITS OF MILLIWATTS/(CM)(K)

 VISC,MILLIPOISE  0.43686  0.43775  0.43864  0.43953  0.44043  0.44132  0.44222  0.44311

  WITH EQUILIBRIUM REACTIONS

 Cp, KJ/(KG)(K)   23.2438  23.1343  23.0299  22.9303  22.8352  22.7446  22.6580  22.5754
 CONDUCTIVITY     15.5700  15.5157  15.4651  15.4180  15.3742  15.3335  15.2958  15.2610
 PRANDTL NUMBER    0.6522   0.6527   0.6532   0.6537   0.6542   0.6546   0.6551   0.6555

  WITH FROZEN REACTIONS

 Cp, KJ/(KG)(K)   20.6183  20.6185  20.6187  20.6189  20.6190  20.6192  20.6193  20.6195
 CONDUCTIVITY     13.4936  13.5218  13.5501  13.5784  13.6067  13.6350  13.6633  13.6916
 PRANDTL NUMBER    0.6675   0.6675   0.6675   0.6674   0.6674   0.6674   0.6674   0.6673

 MOLE FRACTIONS

 *H               0.99849  0.99855  0.99860  0.99865  0.99870  0.99875  0.99879  0.99884
 *H2              0.00151  0.00145  0.00140  0.00135  0.00130  0.00125  0.00120  0.00116

  * THERMODYNAMIC PROPERTIES FITTED TO 20000.K

 NOTE. WEIGHT FRACTION OF FUEL IN TOTAL FUELS AND OF OXIDANT IN TOTAL OXIDANTS









               THERMODYNAMIC EQUILIBRIUM PROPERTIES AT ASSIGNED

                           TEMPERATURE AND PRESSURE

 CASE =                

             REACTANT                    WT FRACTION      ENERGY      TEMP
                                          (SEE NOTE)     KJ/KG-MOL      K  
             H2                           1.0000000         0.000      0.000

 O/F=    0.00000  %FUEL=100.000000  R,EQ.RATIO= 0.000000  PHI,EQ.RATIO= 0.000000

 THERMODYNAMIC PROPERTIES

 P, BAR           0.00225  0.00225  0.00225  0.00225  0.00225  0.00225  0.00225  0.00225
 T, K             3750.00  3760.00  3770.00  3780.00  3790.00  3800.00  3810.00  3820.00
 RHO, KG/CU M    7.2898-6 7.2698-6 7.2499-6 7.2301-6 7.2105-6 7.1910-6 7.1717-6 7.1524-6
 H, KJ/KG        286450.4 286695.7 286939.3 287181.3 287421.8 287660.8 287898.4 288134.7
 U, KJ/KG        255585.2 255745.5 255904.3 256061.5 256217.3 256371.8 256524.9 256676.8
 G, KJ/KG       -523806.9-525967.9-528129.5-530291.8-532454.8-534618.4-536782.6-538947.4
 S, KJ/(KG)(K)   216.0686 216.1339 216.1986 216.2627 216.3263 216.3892 216.4517 216.5136

 M, (1/n)           1.010    1.010    1.010    1.010    1.010    1.010    1.010    1.010
 (dLV/dLP)t      -1.00221 -1.00212 -1.00204 -1.00197 -1.00189 -1.00182 -1.00175 -1.00169
 (dLV/dLT)p        1.0327   1.0314   1.0301   1.0289   1.0278   1.0267   1.0256   1.0246
 Cp, KJ/(KG)(K)   24.6146  24.4425  24.2786  24.1224  23.9736  23.8317  23.6965  23.5675
 GAMMAs            1.5490   1.5531   1.5571   1.5609   1.5646   1.5682   1.5717   1.5751
 SON VEL,M/SEC     6914.6   6933.2   6951.5   6969.6   6987.4   7004.9   7022.2   7039.1

 TRANSPORT PROPERTIES (GASES ONLY)
   CONDUCTIVITY IN UNITS OF MILLIWATTS/(CM)(K)

 VISC,MILLIPOISE  0.43088  0.43175  0.43262  0.43350  0.43438  0.43526  0.43614  0.43702

  WITH EQUILIBRIUM REACTIONS

 Cp, KJ/(KG)(K)   24.6146  24.4425  24.2786  24.1224  23.9736  23.8317  23.6965  23.5675
 CONDUCTIVITY     16.4156  16.3158  16.2219  16.1334  16.0503  15.9721  15.8987  15.8299
 PRANDTL NUMBER    0.6461   0.6468   0.6475   0.6482   0.6488   0.6494   0.6500   0.6506

  WITH FROZEN REACTIONS

 Cp, KJ/(KG)(K)   20.6160  20.6163  20.6166  20.6169  20.6171  20.6174  20.6176  20.6178
 CONDUCTIVITY     13.2994  13.3274  13.3555  13.3836  13.4117  13.4398  13.4680  13.4962
 PRANDTL NUMBER    0.6679   0.6679   0.6678   0.6678   0.6677   0.6677   0.6677   0.6676

 MOLE FRACTIONS

 *H               0.99778  0.99786  0.99794  0.99802  0.99810  0.99817  0.99824  0.99830
 *H2              0.00222  0.00214  0.00206  0.00198  0.00190  0.00183  0.00176  0.00170

  * THERMODYNAMIC PROPERTIES FITTED TO 20000.K

 NOTE. WEIGHT FRACTION OF FUEL IN TOTAL FUELS AND OF OXIDANT IN TOTAL OXIDANTS









               THERMODYNAMIC EQUILIBRIUM PROPERTIES AT ASSIGNED

                           TEMPERATURE AND PRESSURE

 CASE =                

             REACTANT                    WT FRACTION      ENERGY      TEMP
                                          (SEE NOTE)     KJ/KG-MOL      K  
             H2                           1.0000000         0.000      0.000

 O/F=    0.00000  %FUEL=100.000000  R,EQ.RATIO= 0.000000  PHI,EQ.RATIO= 0.000000

 THERMODYNAMIC PROPERTIES

 P, BAR           0.00225  0.00225  0.00225  0.00225  0.00225  0.00225  0.00225  0.00250
 T, K             3830.00  3840.00  3850.00  3860.00  3870.00  3880.00  3890.00  3750.00
 RHO, KG/CU M    7.1333-6 7.1143-6 7.0954-6 7.0766-6 7.0580-6 7.0394-6 7.0210-6 8.1017-6
 H, KJ/KG        288369.8 288603.6 288836.4 289068.0 289298.5 289528.1 289756.7 286338.2
 U, KJ/KG        256827.5 256977.1 257125.7 257273.1 257419.7 257565.2 257709.9 255480.5
 G, KJ/KG       -541112.8-543278.9-545445.6-547612.8-549780.7-551949.2-554118.2-520555.3
 S, KJ/(KG)(K)   216.5751 216.6361 216.6966 216.7567 216.8163 216.8756 216.9344 215.1716

 M, (1/n)           1.010    1.010    1.009    1.009    1.009    1.009    1.009    1.010
 (dLV/dLP)t      -1.00162 -1.00156 -1.00151 -1.00145 -1.00140 -1.00135 -1.00130 -1.00245
 (dLV/dLT)p        1.0236   1.0227   1.0218   1.0209   1.0201   1.0194   1.0186   1.0363
 Cp, KJ/(KG)(K)   23.4446  23.3273  23.2154  23.1087  23.0068  22.9096  22.8168  25.0513
 GAMMAs            1.5784   1.5815   1.5846   1.5875   1.5904   1.5931   1.5957   1.5392
 SON VEL,M/SEC     7055.9   7072.3   7088.6   7104.6   7120.3   7135.8   7151.1   6891.8

 TRANSPORT PROPERTIES (GASES ONLY)
   CONDUCTIVITY IN UNITS OF MILLIWATTS/(CM)(K)

 VISC,MILLIPOISE  0.43791  0.43879  0.43968  0.44057  0.44146  0.44235  0.44324  0.43109

  WITH EQUILIBRIUM REACTIONS

 Cp, KJ/(KG)(K)   23.4446  23.3273  23.2154  23.1087  23.0068  22.9096  22.8168  25.0513
 CONDUCTIVITY     15.7654  15.7050  15.6484  15.5957  15.5464  15.5005  15.4579  16.7609
 PRANDTL NUMBER    0.6512   0.6518   0.6523   0.6528   0.6533   0.6538   0.6543   0.6443

  WITH FROZEN REACTIONS

 Cp, KJ/(KG)(K)   20.6180  20.6182  20.6184  20.6186  20.6187  20.6189  20.6191  20.6153
 CONDUCTIVITY     13.5243  13.5525  13.5807  13.6089  13.6372  13.6654  13.6936  13.3027
 PRANDTL NUMBER    0.6676   0.6676   0.6675   0.6675   0.6675   0.6674   0.6674   0.6681

 MOLE FRACTIONS

 *H               0.99837  0.99843  0.99848  0.99854  0.99859  0.99864  0.99869  0.99753
 *H2              0.00163  0.00157  0.00151  0.00146  0.00141  0.00135  0.00131  0.00247

  * THERMODYNAMIC PROPERTIES FITTED TO 20000.K

 NOTE. WEIGHT FRACTION OF FUEL IN TOTAL FUELS AND OF OXIDANT IN TOTAL OXIDANTS









               THERMODYNAMIC EQUILIBRIUM PROPERTIES AT ASSIGNED

                           TEMPERATURE AND PRESSURE

 CASE =                

             REACTANT                    WT FRACTION      ENERGY      TEMP
                                          (SEE NOTE)     KJ/KG-MOL      K  
             H2                           1.0000000         0.000      0.000

 O/F=    0.00000  %FUEL=100.000000  R,EQ.RATIO= 0.000000  PHI,EQ.RATIO= 0.000000

 THERMODYNAMIC PROPERTIES

 P, BAR           0.00250  0.00250  0.00250  0.00250  0.00250  0.00250  0.00250  0.00250
 T, K             3760.00  3770.00  3780.00  3790.00  3800.00  3810.00  3820.00  3830.00
 RHO, KG/CU M    8.0794-6 8.0572-6 8.0352-6 8.0134-6 7.9916-6 7.9701-6 7.9486-6 7.9273-6
 H, KJ/KG        286587.7 286835.4 287081.3 287325.6 287568.2 287809.3 288048.9 288287.1
 U, KJ/KG        255644.9 255807.5 255968.4 256127.7 256285.5 256441.9 256596.9 256750.5
 G, KJ/KG       -522707.3-524860.0-527013.4-529167.4-531322.1-533477.4-535633.3-537789.8
 S, KJ/(KG)(K)   215.2380 215.3038 215.3690 215.4335 215.4974 215.5608 215.6236 215.6859

 M, (1/n)           1.010    1.010    1.010    1.010    1.010    1.010    1.010    1.010
 (dLV/dLP)t      -1.00236 -1.00227 -1.00218 -1.00210 -1.00202 -1.00195 -1.00187 -1.00180
 (dLV/dLT)p        1.0349   1.0335   1.0321   1.0308   1.0296   1.0284   1.0273   1.0262
 Cp, KJ/(KG)(K)   24.8606  24.6789  24.5058  24.3408  24.1835  24.0335  23.8906  23.7542
 GAMMAs            1.5436   1.5478   1.5518   1.5558   1.5596   1.5634   1.5670   1.5704
 SON VEL,M/SEC     6911.0   6929.9   6948.6   6966.9   6985.0   7002.7   7020.3   7037.5

 TRANSPORT PROPERTIES (GASES ONLY)
   CONDUCTIVITY IN UNITS OF MILLIWATTS/(CM)(K)

 VISC,MILLIPOISE  0.43195  0.43282  0.43369  0.43456  0.43543  0.43631  0.43719  0.43807

  WITH EQUILIBRIUM REACTIONS

 Cp, KJ/(KG)(K)   24.8606  24.6789  24.5058  24.3408  24.1835  24.0335  23.8906  23.7542
 CONDUCTIVITY     16.6471  16.5398  16.4386  16.3432  16.2534  16.1688  16.0893  16.0146
 PRANDTL NUMBER    0.6451   0.6458   0.6465   0.6472   0.6479   0.6485   0.6492   0.6498

  WITH FROZEN REACTIONS

 Cp, KJ/(KG)(K)   20.6156  20.6160  20.6162  20.6165  20.6168  20.6170  20.6173  20.6175
 CONDUCTIVITY     13.3307  13.3586  13.3866  13.4146  13.4426  13.4707  13.4987  13.5268
 PRANDTL NUMBER    0.6680   0.6680   0.6679   0.6679   0.6678   0.6678   0.6677   0.6677

 MOLE FRACTIONS

 *H               0.99763  0.99772  0.99780  0.99789  0.99797  0.99804  0.99812  0.99819
 *H2              0.00237  0.00228  0.00220  0.00211  0.00203  0.00196  0.00188  0.00181

  * THERMODYNAMIC PROPERTIES FITTED TO 20000.K

 NOTE. WEIGHT FRACTION OF FUEL IN TOTAL FUELS AND OF OXIDANT IN TOTAL OXIDANTS









               THERMODYNAMIC EQUILIBRIUM PROPERTIES AT ASSIGNED

                           TEMPERATURE AND PRESSURE

 CASE =                

             REACTANT                    WT FRACTION      ENERGY      TEMP
                                          (SEE NOTE)     KJ/KG-MOL      K  
             H2                           1.0000000         0.000      0.000

 O/F=    0.00000  %FUEL=100.000000  R,EQ.RATIO= 0.000000  PHI,EQ.RATIO= 0.000000

 THERMODYNAMIC PROPERTIES

 P, BAR           0.00250  0.00250  0.00250  0.00250  0.00250  0.00250  0.00280  0.00280
 T, K             3840.00  3850.00  3860.00  3870.00  3880.00  3890.00  3750.00  3760.00
 RHO, KG/CU M    7.9061-6 7.8851-6 7.8642-6 7.8434-6 7.8227-6 7.8022-6 9.0766-6 9.0515-6
 H, KJ/KG        288524.0 288759.6 288994.0 289227.2 289459.4 289690.5 286203.7 286458.4
 U, KJ/KG        256903.0 257054.2 257204.3 257353.3 257501.3 257648.3 255355.2 255524.3
 G, KJ/KG       -539947.0-542104.8-544263.2-546422.2-548581.8-550742.0-517058.8-519201.1
 S, KJ/(KG)(K)   215.7477 215.8089 215.8697 215.9301 215.9900 216.0495 214.2033 214.2711

 M, (1/n)           1.010    1.010    1.010    1.010    1.009    1.009    1.011    1.011
 (dLV/dLP)t      -1.00174 -1.00167 -1.00161 -1.00155 -1.00150 -1.00144 -1.00274 -1.00264
 (dLV/dLT)p        1.0252   1.0242   1.0233   1.0224   1.0215   1.0207   1.0406   1.0390
 Cp, KJ/(KG)(K)   23.6241  23.5000  23.3816  23.2686  23.1607  23.0577  25.5737  25.3607
 GAMMAs            1.5738   1.5771   1.5802   1.5833   1.5863   1.5891   1.5281   1.5327
 SON VEL,M/SEC     7054.5   7071.2   7087.7   7103.9   7119.9   7135.7   6865.9   6885.7

 TRANSPORT PROPERTIES (GASES ONLY)
   CONDUCTIVITY IN UNITS OF MILLIWATTS/(CM)(K)

 VISC,MILLIPOISE  0.43895  0.43983  0.44071  0.44160  0.44249  0.44337  0.43134  0.43220

  WITH EQUILIBRIUM REACTIONS

 Cp, KJ/(KG)(K)   23.6241  23.5000  23.3816  23.2686  23.1607  23.0577  25.5737  25.3607
 CONDUCTIVITY     15.9444  15.8785  15.8168  15.7590  15.7049  15.6544  17.1741  17.0436
 PRANDTL NUMBER    0.6504   0.6509   0.6515   0.6520   0.6526   0.6531   0.6423   0.6431

  WITH FROZEN REACTIONS

 Cp, KJ/(KG)(K)   20.6177  20.6179  20.6181  20.6183  20.6185  20.6187  20.6145  20.6148
 CONDUCTIVITY     13.5549  13.5831  13.6112  13.6393  13.6675  13.6957  13.3067  13.3345
 PRANDTL NUMBER    0.6677   0.6676   0.6676   0.6676   0.6675   0.6675   0.6682   0.6682

 MOLE FRACTIONS

 *H               0.99825  0.99832  0.99838  0.99844  0.99849  0.99855  0.99724  0.99734
 *H2              0.00175  0.00168  0.00162  0.00156  0.00150  0.00145  0.00276  0.00266

  * THERMODYNAMIC PROPERTIES FITTED TO 20000.K

 NOTE. WEIGHT FRACTION OF FUEL IN TOTAL FUELS AND OF OXIDANT IN TOTAL OXIDANTS









               THERMODYNAMIC EQUILIBRIUM PROPERTIES AT ASSIGNED

                           TEMPERATURE AND PRESSURE

 CASE =                

             REACTANT                    WT FRACTION      ENERGY      TEMP
                                          (SEE NOTE)     KJ/KG-MOL      K  
             H2                           1.0000000         0.000      0.000

 O/F=    0.00000  %FUEL=100.000000  R,EQ.RATIO= 0.000000  PHI,EQ.RATIO= 0.000000

 THERMODYNAMIC PROPERTIES

 P, BAR           0.00280  0.00280  0.00280  0.00280  0.00280  0.00280  0.00280  0.00280
 T, K             3770.00  3780.00  3790.00  3800.00  3810.00  3820.00  3830.00  3840.00
 RHO, KG/CU M    9.0266-6 9.0018-6 8.9772-6 8.9528-6 8.9286-6 8.9045-6 8.8805-6 8.8567-6
 H, KJ/KG        286711.0 286961.6 287210.3 287457.2 287702.4 287946.0 288188.0 288428.5
 U, KJ/KG        255691.5 255856.8 256020.3 256182.1 256342.4 256501.0 256658.3 256814.1
 G, KJ/KG       -521344.1-523487.9-525632.2-527777.3-529922.9-532069.3-534216.2-536363.8
 S, KJ/(KG)(K)   214.3382 214.4046 214.4703 214.5354 214.5998 214.6637 214.7269 214.7897

 M, (1/n)           1.011    1.010    1.010    1.010    1.010    1.010    1.010    1.010
 (dLV/dLP)t      -1.00254 -1.00244 -1.00235 -1.00226 -1.00218 -1.00210 -1.00202 -1.00194
 (dLV/dLT)p        1.0374   1.0359   1.0345   1.0331   1.0318   1.0305   1.0293   1.0282
 Cp, KJ/(KG)(K)   25.1579  24.9645  24.7802  24.6045  24.4370  24.2773  24.1249  23.9795
 GAMMAs            1.5372   1.5415   1.5457   1.5498   1.5537   1.5576   1.5613   1.5650
 SON VEL,M/SEC     6905.2   6924.4   6943.4   6962.0   6980.4   6998.5   7016.3   7033.8

 TRANSPORT PROPERTIES (GASES ONLY)
   CONDUCTIVITY IN UNITS OF MILLIWATTS/(CM)(K)

 VISC,MILLIPOISE  0.43306  0.43392  0.43478  0.43565  0.43651  0.43738  0.43826  0.43913

  WITH EQUILIBRIUM REACTIONS

 Cp, KJ/(KG)(K)   25.1579  24.9645  24.7802  24.6045  24.4370  24.2773  24.1249  23.9795
 CONDUCTIVITY     16.9203  16.8038  16.6939  16.5901  16.4922  16.3999  16.3130  16.2312
 PRANDTL NUMBER    0.6439   0.6446   0.6454   0.6461   0.6468   0.6475   0.6481   0.6488

  WITH FROZEN REACTIONS

 Cp, KJ/(KG)(K)   20.6152  20.6155  20.6158  20.6161  20.6164  20.6167  20.6169  20.6172
 CONDUCTIVITY     13.3623  13.3902  13.4181  13.4460  13.4739  13.5019  13.5298  13.5578
 PRANDTL NUMBER    0.6681   0.6681   0.6680   0.6680   0.6679   0.6679   0.6678   0.6678

 MOLE FRACTIONS

 *H               0.99744  0.99754  0.99763  0.99772  0.99781  0.99789  0.99797  0.99804
 *H2              0.00256  0.00246  0.00236  0.00228  0.00219  0.00211  0.00203  0.00195

  * THERMODYNAMIC PROPERTIES FITTED TO 20000.K

 NOTE. WEIGHT FRACTION OF FUEL IN TOTAL FUELS AND OF OXIDANT IN TOTAL OXIDANTS









               THERMODYNAMIC EQUILIBRIUM PROPERTIES AT ASSIGNED

                           TEMPERATURE AND PRESSURE

 CASE =                

             REACTANT                    WT FRACTION      ENERGY      TEMP
                                          (SEE NOTE)     KJ/KG-MOL      K  
             H2                           1.0000000         0.000      0.000

 O/F=    0.00000  %FUEL=100.000000  R,EQ.RATIO= 0.000000  PHI,EQ.RATIO= 0.000000

 THERMODYNAMIC PROPERTIES

 P, BAR           0.00280  0.00280  0.00280  0.00280  0.00280  0.00310  0.00310  0.00310
 T, K             3850.00  3860.00  3870.00  3880.00  3890.00  3750.00  3760.00  3770.00
 RHO, KG/CU M    8.8331-6 8.8096-6 8.7862-6 8.7630-6 8.7400-6 1.0052-5 1.0024-5 9.9964-6
 H, KJ/KG        288667.6 288905.3 289141.8 289377.0 289611.0 286069.5 286329.3 286586.7
 U, KJ/KG        256968.6 257121.8 257273.8 257424.6 257574.4 255230.0 255403.9 255575.6
 G, KJ/KG       -538512.0-540660.8-542810.3-544960.3-547111.0-513919.4-516053.0-518187.3
 S, KJ/(KG)(K)   214.8518 214.9135 214.9747 215.0354 215.0956 213.3304 213.3995 213.4679

 M, (1/n)           1.010    1.010    1.010    1.010    1.010    1.011    1.011    1.011
 (dLV/dLP)t      -1.00187 -1.00180 -1.00174 -1.00168 -1.00162 -1.00303 -1.00291 -1.00280
 (dLV/dLT)p        1.0271   1.0260   1.0250   1.0241   1.0231   1.0449   1.0431   1.0414
 Cp, KJ/(KG)(K)   23.8409  23.7085  23.5822  23.4615  23.3464  26.0942  25.8592  25.6352
 GAMMAs            1.5685   1.5719   1.5751   1.5783   1.5814   1.5177   1.5224   1.5271
 SON VEL,M/SEC     7051.1   7068.2   7085.0   7101.5   7117.8   6841.3   6861.6   6881.7

 TRANSPORT PROPERTIES (GASES ONLY)
   CONDUCTIVITY IN UNITS OF MILLIWATTS/(CM)(K)

 VISC,MILLIPOISE  0.44001  0.44088  0.44176  0.44265  0.44353  0.43160  0.43244  0.43329

  WITH EQUILIBRIUM REACTIONS

 Cp, KJ/(KG)(K)   23.8409  23.7085  23.5822  23.4615  23.3464  26.0942  25.8592  25.6352
 CONDUCTIVITY     16.1541  16.0817  16.0137  15.9498  15.8899  17.5861  17.4390  17.2998
 PRANDTL NUMBER    0.6494   0.6500   0.6506   0.6511   0.6517   0.6404   0.6412   0.6421

  WITH FROZEN REACTIONS

 Cp, KJ/(KG)(K)   20.6174  20.6176  20.6178  20.6180  20.6182  20.6136  20.6140  20.6144
 CONDUCTIVITY     13.5859  13.6139  13.6420  13.6700  13.6981  13.3107  13.3383  13.3660
 PRANDTL NUMBER    0.6677   0.6677   0.6677   0.6676   0.6676   0.6684   0.6683   0.6683

 MOLE FRACTIONS

 *H               0.99812  0.99819  0.99825  0.99831  0.99838  0.99694  0.99706  0.99717
 *H2              0.00188  0.00181  0.00175  0.00168  0.00162  0.00306  0.00294  0.00283

  * THERMODYNAMIC PROPERTIES FITTED TO 20000.K

 NOTE. WEIGHT FRACTION OF FUEL IN TOTAL FUELS AND OF OXIDANT IN TOTAL OXIDANTS









               THERMODYNAMIC EQUILIBRIUM PROPERTIES AT ASSIGNED

                           TEMPERATURE AND PRESSURE

 CASE =                

             REACTANT                    WT FRACTION      ENERGY      TEMP
                                          (SEE NOTE)     KJ/KG-MOL      K  
             H2                           1.0000000         0.000      0.000

 O/F=    0.00000  %FUEL=100.000000  R,EQ.RATIO= 0.000000  PHI,EQ.RATIO= 0.000000

 THERMODYNAMIC PROPERTIES

 P, BAR           0.00310  0.00310  0.00310  0.00310  0.00310  0.00310  0.00310  0.00310
 T, K             3780.00  3790.00  3800.00  3810.00  3820.00  3830.00  3840.00  3850.00
 RHO, KG/CU M    9.9689-6 9.9416-6 9.9144-6 9.8875-6 9.8607-6 9.8341-6 9.8077-6 9.7814-6
 H, KJ/KG        286842.0 287095.2 287346.4 287595.7 287843.2 288089.0 288333.2 288575.7
 U, KJ/KG        255745.3 255913.0 256078.9 256243.0 256405.3 256566.1 256725.3 256883.1
 G, KJ/KG       -520322.3-522458.0-524594.4-526731.4-528869.1-531007.4-533146.3-535285.9
 S, KJ/(KG)(K)   213.5355 213.6024 213.6686 213.7342 213.7990 213.8633 213.9269 213.9900

 M, (1/n)           1.011    1.011    1.010    1.010    1.010    1.010    1.010    1.010
 (dLV/dLP)t      -1.00270 -1.00260 -1.00250 -1.00241 -1.00232 -1.00223 -1.00215 -1.00207
 (dLV/dLT)p        1.0397   1.0381   1.0366   1.0351   1.0337   1.0324   1.0312   1.0299
 Cp, KJ/(KG)(K)   25.4218  25.2184  25.0244  24.8394  24.6630  24.4947  24.3341  24.1809
 GAMMAs            1.5317   1.5361   1.5404   1.5446   1.5487   1.5526   1.5565   1.5602
 SON VEL,M/SEC     6901.4   6920.9   6940.0   6958.9   6977.6   6995.9   7014.0   7031.8

 TRANSPORT PROPERTIES (GASES ONLY)
   CONDUCTIVITY IN UNITS OF MILLIWATTS/(CM)(K)

 VISC,MILLIPOISE  0.43414  0.43500  0.43586  0.43672  0.43758  0.43845  0.43931  0.44018

  WITH EQUILIBRIUM REACTIONS

 Cp, KJ/(KG)(K)   25.4218  25.2184  25.0244  24.8394  24.6630  24.4947  24.3341  24.1809
 CONDUCTIVITY     17.1682  17.0437  16.9260  16.8149  16.7099  16.6108  16.5173  16.4292
 PRANDTL NUMBER    0.6429   0.6436   0.6444   0.6451   0.6458   0.6465   0.6472   0.6479

  WITH FROZEN REACTIONS

 Cp, KJ/(KG)(K)   20.6147  20.6151  20.6154  20.6157  20.6160  20.6163  20.6166  20.6168
 CONDUCTIVITY     13.3937  13.4215  13.4493  13.4771  13.5050  13.5328  13.5607  13.5887
 PRANDTL NUMBER    0.6682   0.6681   0.6681   0.6680   0.6680   0.6679   0.6679   0.6679

 MOLE FRACTIONS

 *H               0.99728  0.99738  0.99748  0.99758  0.99767  0.99775  0.99784  0.99792
 *H2              0.00272  0.00262  0.00252  0.00242  0.00233  0.00225  0.00216  0.00208

  * THERMODYNAMIC PROPERTIES FITTED TO 20000.K

 NOTE. WEIGHT FRACTION OF FUEL IN TOTAL FUELS AND OF OXIDANT IN TOTAL OXIDANTS









               THERMODYNAMIC EQUILIBRIUM PROPERTIES AT ASSIGNED

                           TEMPERATURE AND PRESSURE

 CASE =                

             REACTANT                    WT FRACTION      ENERGY      TEMP
                                          (SEE NOTE)     KJ/KG-MOL      K  
             H2                           1.0000000         0.000      0.000

 O/F=    0.00000  %FUEL=100.000000  R,EQ.RATIO= 0.000000  PHI,EQ.RATIO= 0.000000

 THERMODYNAMIC PROPERTIES

 P, BAR           0.00310  0.00310  0.00310  0.00310  0.00350  0.00350  0.00350  0.00350
 T, K             3860.00  3870.00  3880.00  3890.00  3750.00  3760.00  3770.00  3780.00
 RHO, KG/CU M    9.7554-6 9.7294-6 9.7037-6 9.6781-6 1.1354-5 1.1322-5 1.1290-5 1.1259-5
 H, KJ/KG        288816.8 289056.4 289294.7 289531.7 285890.9 286157.5 286421.4 286682.9
 U, KJ/KG        257039.4 257194.4 257348.1 257500.6 255063.5 255243.7 255421.5 255597.0
 G, KJ/KG       -537426.1-539567.0-541708.4-543850.5-510177.4-512300.5-514424.5-516549.1
 S, KJ/(KG)(K)   214.0526 214.1146 214.1761 214.2371 212.2849 212.3559 212.4260 212.4952

 M, (1/n)           1.010    1.010    1.010    1.010    1.011    1.011    1.011    1.011
 (dLV/dLP)t      -1.00200 -1.00192 -1.00185 -1.00179 -1.00341 -1.00328 -1.00316 -1.00304
 (dLV/dLT)p        1.0288   1.0277   1.0266   1.0256   1.0506   1.0486   1.0466   1.0447
 Cp, KJ/(KG)(K)   24.0346  23.8950  23.7617  23.6345  26.7853  26.5212  26.2694  26.0293
 GAMMAs            1.5638   1.5673   1.5707   1.5740   1.5046   1.5096   1.5145   1.5193
 SON VEL,M/SEC     7049.3   7066.6   7083.7   7100.4   6810.4   6831.4   6852.0   6872.3

 TRANSPORT PROPERTIES (GASES ONLY)
   CONDUCTIVITY IN UNITS OF MILLIWATTS/(CM)(K)

 VISC,MILLIPOISE  0.44106  0.44193  0.44280  0.44368  0.43193  0.43277  0.43360  0.43444

  WITH EQUILIBRIUM REACTIONS

 Cp, KJ/(KG)(K)   24.0346  23.8950  23.7617  23.6345  26.7853  26.5212  26.2694  26.0293
 CONDUCTIVITY     16.3461  16.2679  16.1943  16.1250  18.1336  17.9645  17.8042  17.6525
 PRANDTL NUMBER    0.6485   0.6491   0.6497   0.6503   0.6380   0.6389   0.6398   0.6406

  WITH FROZEN REACTIONS

 Cp, KJ/(KG)(K)   20.6171  20.6173  20.6175  20.6178  20.6125  20.6129  20.6133  20.6137
 CONDUCTIVITY     13.6166  13.6446  13.6726  13.7006  13.3160  13.3434  13.3709  13.3985
 PRANDTL NUMBER    0.6678   0.6678   0.6677   0.6677   0.6686   0.6685   0.6685   0.6684

 MOLE FRACTIONS

 *H               0.99799  0.99806  0.99813  0.99820  0.99655  0.99668  0.99681  0.99693
 *H2              0.00201  0.00193  0.00186  0.00180  0.00345  0.00332  0.00319  0.00307

  * THERMODYNAMIC PROPERTIES FITTED TO 20000.K

 NOTE. WEIGHT FRACTION OF FUEL IN TOTAL FUELS AND OF OXIDANT IN TOTAL OXIDANTS









               THERMODYNAMIC EQUILIBRIUM PROPERTIES AT ASSIGNED

                           TEMPERATURE AND PRESSURE

 CASE =                

             REACTANT                    WT FRACTION      ENERGY      TEMP
                                          (SEE NOTE)     KJ/KG-MOL      K  
             H2                           1.0000000         0.000      0.000

 O/F=    0.00000  %FUEL=100.000000  R,EQ.RATIO= 0.000000  PHI,EQ.RATIO= 0.000000

 THERMODYNAMIC PROPERTIES

 P, BAR           0.00350  0.00350  0.00350  0.00350  0.00350  0.00350  0.00350  0.00350
 T, K             3790.00  3800.00  3810.00  3820.00  3830.00  3840.00  3850.00  3860.00
 RHO, KG/CU M    1.1228-5 1.1197-5 1.1167-5 1.1136-5 1.1106-5 1.1076-5 1.1047-5 1.1017-5
 H, KJ/KG        286942.0 287198.9 287453.7 287706.5 287957.3 288206.2 288453.4 288698.9
 U, KJ/KG        255770.3 255941.5 256110.7 256278.0 256443.4 256607.1 256769.2 256929.7
 G, KJ/KG       -518674.4-520800.3-522927.0-525054.3-527182.3-529310.9-531440.2-533570.1
 S, KJ/(KG)(K)   212.5637 212.6314 212.6983 212.7646 212.8302 212.8951 212.9594 213.0230

 M, (1/n)           1.011    1.011    1.011    1.011    1.010    1.010    1.010    1.010
 (dLV/dLP)t      -1.00293 -1.00282 -1.00271 -1.00261 -1.00252 -1.00242 -1.00234 -1.00225
 (dLV/dLT)p        1.0430   1.0412   1.0396   1.0380   1.0366   1.0351   1.0338   1.0324
 Cp, KJ/(KG)(K)   25.8005  25.5823  25.3742  25.1756  24.9862  24.8055  24.6330  24.4683
 GAMMAs            1.5240   1.5286   1.5330   1.5373   1.5416   1.5457   1.5496   1.5535
 SON VEL,M/SEC     6892.4   6912.2   6931.7   6951.0   6970.0   6988.7   7007.1   7025.2

 TRANSPORT PROPERTIES (GASES ONLY)
   CONDUCTIVITY IN UNITS OF MILLIWATTS/(CM)(K)

 VISC,MILLIPOISE  0.43529  0.43614  0.43699  0.43784  0.43870  0.43956  0.44042  0.44128

  WITH EQUILIBRIUM REACTIONS

 Cp, KJ/(KG)(K)   25.8005  25.5823  25.3742  25.1756  24.9862  24.8055  24.6330  24.4683
 CONDUCTIVITY     17.5087  17.3727  17.2439  17.1221  17.0069  16.8980  16.7951  16.6979
 PRANDTL NUMBER    0.6414   0.6422   0.6430   0.6438   0.6445   0.6453   0.6460   0.6466

  WITH FROZEN REACTIONS

 Cp, KJ/(KG)(K)   20.6141  20.6145  20.6149  20.6152  20.6155  20.6158  20.6161  20.6164
 CONDUCTIVITY     13.4261  13.4537  13.4814  13.5091  13.5368  13.5646  13.5924  13.6202
 PRANDTL NUMBER    0.6683   0.6683   0.6682   0.6682   0.6681   0.6681   0.6680   0.6680

 MOLE FRACTIONS

 *H               0.99705  0.99716  0.99726  0.99737  0.99746  0.99756  0.99765  0.99773
 *H2              0.00295  0.00284  0.00273  0.00263  0.00253  0.00244  0.00235  0.00227

  * THERMODYNAMIC PROPERTIES FITTED TO 20000.K

 NOTE. WEIGHT FRACTION OF FUEL IN TOTAL FUELS AND OF OXIDANT IN TOTAL OXIDANTS









               THERMODYNAMIC EQUILIBRIUM PROPERTIES AT ASSIGNED

                           TEMPERATURE AND PRESSURE

 CASE =                

             REACTANT                    WT FRACTION      ENERGY      TEMP
                                          (SEE NOTE)     KJ/KG-MOL      K  
             H2                           1.0000000         0.000      0.000

 O/F=    0.00000  %FUEL=100.000000  R,EQ.RATIO= 0.000000  PHI,EQ.RATIO= 0.000000

 THERMODYNAMIC PROPERTIES

 P, BAR           0.00350  0.00350  0.00350  0.00390  0.00390  0.00390  0.00390  0.00390
 T, K             3870.00  3880.00  3890.00  3750.00  3760.00  3770.00  3780.00  3790.00
 RHO, KG/CU M    1.0988-5 1.0958-5 1.0929-5 1.2656-5 1.2620-5 1.2585-5 1.2550-5 1.2516-5
 H, KJ/KG        288942.8 289185.1 289426.0 285712.8 285986.0 286256.4 286524.1 286789.2
 U, KJ/KG        257088.6 257246.1 257402.3 254897.3 255083.9 255267.7 255449.0 255627.8
 G, KJ/KG       -535700.6-537831.8-539963.6-506842.1-508955.9-511070.4-513185.7-515301.7
 S, KJ/(KG)(K)   213.0862 213.1487 213.2107 211.3480 211.4207 211.4925 211.5634 211.6335

 M, (1/n)           1.010    1.010    1.010    1.012    1.012    1.012    1.011    1.011
 (dLV/dLP)t      -1.00217 -1.00209 -1.00202 -1.00380 -1.00365 -1.00351 -1.00338 -1.00326
 (dLV/dLT)p        1.0312   1.0300   1.0289   1.0563   1.0540   1.0518   1.0498   1.0478
 Cp, KJ/(KG)(K)   24.3111  24.1610  24.0177  27.4733  27.1802  26.9007  26.6343  26.3803
 GAMMAs            1.5573   1.5609   1.5645   1.4924   1.4976   1.5028   1.5078   1.5127
 SON VEL,M/SEC     7043.1   7060.8   7078.2   6781.5   6802.9   6824.1   6845.0   6865.6

 TRANSPORT PROPERTIES (GASES ONLY)
   CONDUCTIVITY IN UNITS OF MILLIWATTS/(CM)(K)

 VISC,MILLIPOISE  0.44215  0.44302  0.44389  0.43227  0.43309  0.43391  0.43475  0.43558

  WITH EQUILIBRIUM REACTIONS

 Cp, KJ/(KG)(K)   24.3111  24.1610  24.0177  27.4733  27.1802  26.9007  26.6343  26.3803
 CONDUCTIVITY     16.6061  16.5195  16.4379  18.6789  18.4880  18.3068  18.1351  17.9722
 PRANDTL NUMBER    0.6473   0.6479   0.6486   0.6358   0.6367   0.6376   0.6385   0.6394

  WITH FROZEN REACTIONS

 Cp, KJ/(KG)(K)   20.6166  20.6169  20.6171  20.6113  20.6118  20.6123  20.6128  20.6132
 CONDUCTIVITY     13.6481  13.6759  13.7038  13.3212  13.3485  13.3759  13.4032  13.4307
 PRANDTL NUMBER    0.6679   0.6679   0.6678   0.6688   0.6687   0.6687   0.6686   0.6685

 MOLE FRACTIONS

 *H               0.99782  0.99790  0.99797  0.99616  0.99631  0.99645  0.99658  0.99671
 *H2              0.00218  0.00210  0.00203  0.00384  0.00369  0.00355  0.00342  0.00329

  * THERMODYNAMIC PROPERTIES FITTED TO 20000.K

 NOTE. WEIGHT FRACTION OF FUEL IN TOTAL FUELS AND OF OXIDANT IN TOTAL OXIDANTS









               THERMODYNAMIC EQUILIBRIUM PROPERTIES AT ASSIGNED

                           TEMPERATURE AND PRESSURE

 CASE =                

             REACTANT                    WT FRACTION      ENERGY      TEMP
                                          (SEE NOTE)     KJ/KG-MOL      K  
             H2                           1.0000000         0.000      0.000

 O/F=    0.00000  %FUEL=100.000000  R,EQ.RATIO= 0.000000  PHI,EQ.RATIO= 0.000000

 THERMODYNAMIC PROPERTIES

 P, BAR           0.00390  0.00390  0.00390  0.00390  0.00390  0.00390  0.00390  0.00390
 T, K             3800.00  3810.00  3820.00  3830.00  3840.00  3850.00  3860.00  3870.00
 RHO, KG/CU M    1.2481-5 1.2447-5 1.2413-5 1.2379-5 1.2346-5 1.2312-5 1.2279-5 1.2246-5
 H, KJ/KG        287051.7 287312.0 287569.9 287825.7 288079.5 288331.3 288581.2 288829.3
 U, KJ/KG        255804.3 255978.6 256150.8 256320.9 256489.1 256655.5 256820.1 256983.0
 G, KJ/KG       -517418.4-519535.8-521653.8-523772.5-525891.9-528012.0-530132.7-532254.0
 S, KJ/(KG)(K)   211.7027 211.7711 211.8387 211.9055 211.9717 212.0372 212.1020 212.1662

 M, (1/n)           1.011    1.011    1.011    1.011    1.011    1.011    1.010    1.010
 (dLV/dLP)t      -1.00313 -1.00302 -1.00291 -1.00280 -1.00270 -1.00260 -1.00250 -1.00241
 (dLV/dLT)p        1.0459   1.0441   1.0423   1.0407   1.0391   1.0376   1.0361   1.0347
 Cp, KJ/(KG)(K)   26.1380  25.9069  25.6865  25.4761  25.2753  25.0837  24.9007  24.7260
 GAMMAs            1.5174   1.5221   1.5267   1.5311   1.5354   1.5397   1.5438   1.5478
 SON VEL,M/SEC     6885.9   6906.0   6925.8   6945.3   6964.6   6983.5   7002.3   7020.7

 TRANSPORT PROPERTIES (GASES ONLY)
   CONDUCTIVITY IN UNITS OF MILLIWATTS/(CM)(K)

 VISC,MILLIPOISE  0.43642  0.43726  0.43810  0.43895  0.43980  0.44066  0.44151  0.44237

  WITH EQUILIBRIUM REACTIONS

 Cp, KJ/(KG)(K)   26.1380  25.9069  25.6865  25.4761  25.2753  25.0837  24.9007  24.7260
 CONDUCTIVITY     17.8179  17.6716  17.5331  17.4018  17.2776  17.1600  17.0487  16.9435
 PRANDTL NUMBER    0.6402   0.6410   0.6418   0.6426   0.6434   0.6441   0.6449   0.6456

  WITH FROZEN REACTIONS

 Cp, KJ/(KG)(K)   20.6136  20.6140  20.6144  20.6147  20.6151  20.6154  20.6157  20.6160
 CONDUCTIVITY     13.4582  13.4857  13.5132  13.5408  13.5685  13.5961  13.6238  13.6516
 PRANDTL NUMBER    0.6685   0.6684   0.6683   0.6683   0.6682   0.6682   0.6681   0.6680

 MOLE FRACTIONS

 *H               0.99684  0.99695  0.99707  0.99718  0.99728  0.99738  0.99748  0.99757
 *H2              0.00316  0.00305  0.00293  0.00282  0.00272  0.00262  0.00252  0.00243

  * THERMODYNAMIC PROPERTIES FITTED TO 20000.K

 NOTE. WEIGHT FRACTION OF FUEL IN TOTAL FUELS AND OF OXIDANT IN TOTAL OXIDANTS









               THERMODYNAMIC EQUILIBRIUM PROPERTIES AT ASSIGNED

                           TEMPERATURE AND PRESSURE

 CASE =                

             REACTANT                    WT FRACTION      ENERGY      TEMP
                                          (SEE NOTE)     KJ/KG-MOL      K  
             H2                           1.0000000         0.000      0.000

 O/F=    0.00000  %FUEL=100.000000  R,EQ.RATIO= 0.000000  PHI,EQ.RATIO= 0.000000

 THERMODYNAMIC PROPERTIES

 P, BAR           0.00390  0.00390  0.00440  0.00440  0.00440  0.00440  0.00440  0.00440
 T, K             3880.00  3890.00  3750.00  3760.00  3770.00  3780.00  3790.00  3800.00
 RHO, KG/CU M    1.2214-5 1.2181-5 1.4285-5 1.4245-5 1.4205-5 1.4165-5 1.4126-5 1.4087-5
 H, KJ/KG        289075.7 289320.5 285490.7 285772.3 286050.7 286326.1 286598.5 286868.2
 U, KJ/KG        257144.4 257304.2 254690.2 254884.6 255076.0 255264.4 255450.2 255633.3
 G, KJ/KG       -534376.0-536498.6-503125.7-505229.1-507333.2-509438.0-511543.5-513649.8
 S, KJ/(KG)(K)   212.2298 212.2928 210.2977 210.3727 210.4467 210.5196 210.5916 210.6626

 M, (1/n)           1.010    1.010    1.012    1.012    1.012    1.012    1.012    1.012
 (dLV/dLP)t      -1.00233 -1.00224 -1.00427 -1.00411 -1.00396 -1.00381 -1.00367 -1.00353
 (dLV/dLT)p        1.0334   1.0321   1.0634   1.0608   1.0584   1.0560   1.0538   1.0517
 Cp, KJ/(KG)(K)   24.5592  24.3999  28.3287  27.9997  27.6861  27.3871  27.1018  26.8297
 GAMMAs            1.5516   1.5554   1.4783   1.4838   1.4891   1.4943   1.4994   1.5045
 SON VEL,M/SEC     7038.9   7056.8   6747.9   6769.8   6791.5   6812.9   6834.1   6855.0

 TRANSPORT PROPERTIES (GASES ONLY)
   CONDUCTIVITY IN UNITS OF MILLIWATTS/(CM)(K)

 VISC,MILLIPOISE  0.44323  0.44409  0.43268  0.43349  0.43430  0.43512  0.43594  0.43677

  WITH EQUILIBRIUM REACTIONS

 Cp, KJ/(KG)(K)   24.5592  24.3999  28.3287  27.9997  27.6861  27.3871  27.1018  26.8297
 CONDUCTIVITY     16.8440  16.7500  19.3576  19.1396  18.9325  18.7360  18.5494  18.3724
 PRANDTL NUMBER    0.6462   0.6469   0.6332   0.6342   0.6351   0.6360   0.6369   0.6378

  WITH FROZEN REACTIONS

 Cp, KJ/(KG)(K)   20.6163  20.6165  20.6099  20.6105  20.6110  20.6115  20.6120  20.6125
 CONDUCTIVITY     13.6793  13.7071  13.3278  13.3549  13.3820  13.4092  13.4364  13.4637
 PRANDTL NUMBER    0.6680   0.6680   0.6691   0.6690   0.6689   0.6688   0.6688   0.6687

 MOLE FRACTIONS

 *H               0.99766  0.99774  0.99567  0.99584  0.99600  0.99615  0.99629  0.99643
 *H2              0.00234  0.00226  0.00433  0.00416  0.00400  0.00385  0.00371  0.00357

  * THERMODYNAMIC PROPERTIES FITTED TO 20000.K

 NOTE. WEIGHT FRACTION OF FUEL IN TOTAL FUELS AND OF OXIDANT IN TOTAL OXIDANTS









               THERMODYNAMIC EQUILIBRIUM PROPERTIES AT ASSIGNED

                           TEMPERATURE AND PRESSURE

 CASE =                

             REACTANT                    WT FRACTION      ENERGY      TEMP
                                          (SEE NOTE)     KJ/KG-MOL      K  
             H2                           1.0000000         0.000      0.000

 O/F=    0.00000  %FUEL=100.000000  R,EQ.RATIO= 0.000000  PHI,EQ.RATIO= 0.000000

 THERMODYNAMIC PROPERTIES

 P, BAR           0.00440  0.00440  0.00440  0.00440  0.00440  0.00440  0.00440  0.00440
 T, K             3810.00  3820.00  3830.00  3840.00  3850.00  3860.00  3870.00  3880.00
 RHO, KG/CU M    1.4048-5 1.4009-5 1.3971-5 1.3933-5 1.3895-5 1.3858-5 1.3821-5 1.3784-5
 H, KJ/KG        287135.2 287399.6 287661.6 287921.4 288178.9 288434.3 288687.7 288939.2
 U, KJ/KG        255813.9 255992.2 256168.1 256341.9 256513.7 256683.4 256851.3 257017.3
 G, KJ/KG       -515756.8-517864.5-519972.8-522081.9-524191.6-526302.0-528413.0-530524.7
 S, KJ/(KG)(K)   210.7328 210.8021 210.8706 210.9383 211.0053 211.0716 211.1371 211.2020

 M, (1/n)           1.011    1.011    1.011    1.011    1.011    1.011    1.011    1.011
 (dLV/dLP)t      -1.00340 -1.00327 -1.00315 -1.00304 -1.00293 -1.00282 -1.00272 -1.00262
 (dLV/dLT)p        1.0496   1.0477   1.0458   1.0440   1.0423   1.0407   1.0391   1.0376
 Cp, KJ/(KG)(K)   26.5702  26.3225  26.0861  25.8604  25.6450  25.4394  25.2430  25.0554
 GAMMAs            1.5094   1.5142   1.5188   1.5234   1.5279   1.5322   1.5365   1.5406
 SON VEL,M/SEC     6875.7   6896.1   6916.2   6936.0   6955.6   6974.9   6994.0   7012.8

 TRANSPORT PROPERTIES (GASES ONLY)
   CONDUCTIVITY IN UNITS OF MILLIWATTS/(CM)(K)

 VISC,MILLIPOISE  0.43760  0.43843  0.43927  0.44011  0.44095  0.44179  0.44264  0.44349

  WITH EQUILIBRIUM REACTIONS

 Cp, KJ/(KG)(K)   26.5702  26.3225  26.0861  25.8604  25.6450  25.4394  25.2430  25.0554
 CONDUCTIVITY     18.2044  18.0451  17.8939  17.7506  17.6148  17.4860  17.3641  17.2485
 PRANDTL NUMBER    0.6387   0.6395   0.6404   0.6412   0.6420   0.6427   0.6435   0.6442

  WITH FROZEN REACTIONS

 Cp, KJ/(KG)(K)   20.6129  20.6133  20.6137  20.6141  20.6145  20.6148  20.6151  20.6155
 CONDUCTIVITY     13.4910  13.5184  13.5458  13.5733  13.6008  13.6283  13.6559  13.6835
 PRANDTL NUMBER    0.6686   0.6685   0.6685   0.6684   0.6683   0.6683   0.6682   0.6682

 MOLE FRACTIONS

 *H               0.99657  0.99669  0.99682  0.99693  0.99705  0.99715  0.99726  0.99736
 *H2              0.00343  0.00331  0.00318  0.00307  0.00295  0.00284  0.00274  0.00264

  * THERMODYNAMIC PROPERTIES FITTED TO 20000.K

 NOTE. WEIGHT FRACTION OF FUEL IN TOTAL FUELS AND OF OXIDANT IN TOTAL OXIDANTS









               THERMODYNAMIC EQUILIBRIUM PROPERTIES AT ASSIGNED

                           TEMPERATURE AND PRESSURE

 CASE =                

             REACTANT                    WT FRACTION      ENERGY      TEMP
                                          (SEE NOTE)     KJ/KG-MOL      K  
             H2                           1.0000000         0.000      0.000

 O/F=    0.00000  %FUEL=100.000000  R,EQ.RATIO= 0.000000  PHI,EQ.RATIO= 0.000000

 THERMODYNAMIC PROPERTIES

 P, BAR           0.00440
 T, K             3890.00
 RHO, KG/CU M    1.3747-5
 H, KJ/KG        289188.8
 U, KJ/KG        257181.7
 G, KJ/KG       -532637.1
 S, KJ/(KG)(K)   211.2663

 M, (1/n)           1.011
 (dLV/dLP)t      -1.00253
 (dLV/dLT)p        1.0362
 Cp, KJ/(KG)(K)   24.8762
 GAMMAs            1.5446
 SON VEL,M/SEC     7031.3

 TRANSPORT PROPERTIES (GASES ONLY)
   CONDUCTIVITY IN UNITS OF MILLIWATTS/(CM)(K)

 VISC,MILLIPOISE  0.44435

  WITH EQUILIBRIUM REACTIONS

 Cp, KJ/(KG)(K)   24.8762
 CONDUCTIVITY     17.1392
 PRANDTL NUMBER    0.6449

  WITH FROZEN REACTIONS

 Cp, KJ/(KG)(K)   20.6158
 CONDUCTIVITY     13.7112
 PRANDTL NUMBER    0.6681

 MOLE FRACTIONS

 *H               0.99745
 *H2              0.00255

  * THERMODYNAMIC PROPERTIES FITTED TO 20000.K

 NOTE. WEIGHT FRACTION OF FUEL IN TOTAL FUELS AND OF OXIDANT IN TOTAL OXIDANTS



  
