
 *******************************************************************************

         NASA-GLENN CHEMICAL EQUILIBRIUM PROGRAM CEA2, MAY 21, 2004
                   BY  BONNIE MCBRIDE AND SANFORD GORDON
      REFS: NASA RP-1311, PART I, 1994 AND NASA RP-1311, PART II, 1996

 *******************************************************************************



  prob tp ions
  p,bar= 60.0,67.0,74.0,82.5,91.0,100.0,110.0,120.0,132.0,148.0,165.0,180.0,200.0
 ,225.0,250.0
  t,k= 2700,2710,2720,2730,2740,2750,2760,2770,2780,2790,2800,2810,2820,2830,2840
  
  reac
  na H2                wt%=100.0000
  
  output short
  output siunits
  output transport
  
 end





               THERMODYNAMIC EQUILIBRIUM PROPERTIES AT ASSIGNED

                           TEMPERATURE AND PRESSURE

 CASE =                

             REACTANT                    WT FRACTION      ENERGY      TEMP
                                          (SEE NOTE)     KJ/KG-MOL      K  
             H2                           1.0000000         0.000      0.000

 O/F=    0.00000  %FUEL=100.000000  R,EQ.RATIO= 0.000000  PHI,EQ.RATIO= 0.000000

 THERMODYNAMIC PROPERTIES

 P, BAR            60.000   60.000   60.000   60.000   60.000   60.000   60.000   60.000
 T, K             2700.00  2710.00  2720.00  2730.00  2740.00  2750.00  2760.00  2770.00
 RHO, KG/CU M    5.3681-1 5.3476-1 5.3271-1 5.3068-1 5.2867-1 5.2666-1 5.2467-1 5.2268-1
 H, KJ/KG         39385.4  39597.9  39811.6  40026.4  40242.4  40459.5  40677.9  40897.5
 U, KJ/KG         28208.3  28377.8  28548.5  28720.2  28893.0  29067.0  29242.0  29418.3
 G, KJ/KG       -182496.0-183317.6-184140.5-184964.3-185788.8-186614.1-187440.3-188267.2
 S, KJ/(KG)(K)    82.1783  82.2566  82.3353  82.4142  82.4931  82.5722  82.6515  82.7309

 M, (1/n)           2.009    2.008    2.008    2.008    2.007    2.007    2.007    2.006
 (dLV/dLP)t      -1.00183 -1.00190 -1.00197 -1.00205 -1.00212 -1.00220 -1.00228 -1.00237
 (dLV/dLT)p        1.0373   1.0386   1.0400   1.0413   1.0427   1.0441   1.0456   1.0471
 Cp, KJ/(KG)(K)   21.2019  21.3124  21.4251  21.5400  21.6570  21.7763  21.8979  22.0218
 GAMMAs            1.2631   1.2621   1.2611   1.2601   1.2592   1.2582   1.2572   1.2562
 SON VEL,M/SEC     3757.3   3763.1   3768.8   3774.6   3780.3   3786.0   3791.7   3797.4

 TRANSPORT PROPERTIES (GASES ONLY)
   CONDUCTIVITY IN UNITS OF MILLIWATTS/(CM)(K)

 VISC,MILLIPOISE  0.42180  0.42307  0.42435  0.42564  0.42692  0.42821  0.42950  0.43079

  WITH EQUILIBRIUM REACTIONS

 Cp, KJ/(KG)(K)   21.2019  21.3124  21.4251  21.5400  21.6570  21.7763  21.8979  22.0218
 CONDUCTIVITY     14.5058  14.6719  14.8420  15.0155  15.1924  15.3729  15.5570  15.7446
 PRANDTL NUMBER    0.6165   0.6146   0.6126   0.6106   0.6086   0.6066   0.6046   0.6025

  WITH FROZEN REACTIONS

 Cp, KJ/(KG)(K)   18.0466  18.0594  18.0722  18.0850  18.0977  18.1104  18.1230  18.1356
 CONDUCTIVITY     10.8173  10.8578  10.8990  10.9404  10.9818  11.0233  11.0650  11.1067
 PRANDTL NUMBER    0.7037   0.7037   0.7036   0.7036   0.7036   0.7035   0.7035   0.7034

 MOLE FRACTIONS

 *H               0.00732  0.00760  0.00789  0.00819  0.00849  0.00881  0.00913  0.00947
 *H2              0.99268  0.99240  0.99211  0.99181  0.99151  0.99119  0.99087  0.99053

  * THERMODYNAMIC PROPERTIES FITTED TO 20000.K

 NOTE. WEIGHT FRACTION OF FUEL IN TOTAL FUELS AND OF OXIDANT IN TOTAL OXIDANTS









               THERMODYNAMIC EQUILIBRIUM PROPERTIES AT ASSIGNED

                           TEMPERATURE AND PRESSURE

 CASE =                

             REACTANT                    WT FRACTION      ENERGY      TEMP
                                          (SEE NOTE)     KJ/KG-MOL      K  
             H2                           1.0000000         0.000      0.000

 O/F=    0.00000  %FUEL=100.000000  R,EQ.RATIO= 0.000000  PHI,EQ.RATIO= 0.000000

 THERMODYNAMIC PROPERTIES

 P, BAR            60.000   60.000   60.000   60.000   60.000   60.000   60.000   67.000
 T, K             2780.00  2790.00  2800.00  2810.00  2820.00  2830.00  2840.00  2700.00
 RHO, KG/CU M    5.2071-1 5.1876-1 5.1681-1 5.1487-1 5.1295-1 5.1103-1 5.0913-1 5.9956-1
 H, KJ/KG         41118.3  41340.5  41563.9  41788.6  42014.7  42242.1  42471.0  39340.5
 U, KJ/KG         29595.7  29774.3  29954.2  30135.3  30317.6  30501.2  30686.2  28165.6
 G, KJ/KG       -189094.9-189923.4-190752.7-191582.8-192413.7-193245.4-194077.9-181262.2
 S, KJ/(KG)(K)    82.8105  82.8903  82.9702  83.0503  83.1306  83.2111  83.2919  81.7047

 M, (1/n)           2.006    2.006    2.005    2.005    2.005    2.004    2.004    2.009
 (dLV/dLP)t      -1.00245 -1.00254 -1.00263 -1.00272 -1.00282 -1.00292 -1.00302 -1.00173
 (dLV/dLT)p        1.0486   1.0502   1.0518   1.0535   1.0552   1.0569   1.0587   1.0354
 Cp, KJ/(KG)(K)   22.1479  22.2765  22.4074  22.5406  22.6763  22.8145  22.9551  21.0320
 GAMMAs            1.2552   1.2543   1.2533   1.2523   1.2513   1.2503   1.2494   1.2646
 SON VEL,M/SEC     3803.1   3808.8   3814.5   3820.1   3825.8   3831.5   3837.1   3759.2

 TRANSPORT PROPERTIES (GASES ONLY)
   CONDUCTIVITY IN UNITS OF MILLIWATTS/(CM)(K)

 VISC,MILLIPOISE  0.43208  0.43338  0.43468  0.43599  0.43729  0.43860  0.43991  0.42170

  WITH EQUILIBRIUM REACTIONS

 Cp, KJ/(KG)(K)   22.1479  22.2765  22.4074  22.5406  22.6763  22.8145  22.9551  21.0320
 CONDUCTIVITY     15.9360  16.1310  16.3299  16.5326  16.7391  16.9497  17.1642  14.3042
 PRANDTL NUMBER    0.6005   0.5985   0.5965   0.5944   0.5924   0.5904   0.5883   0.6200

  WITH FROZEN REACTIONS

 Cp, KJ/(KG)(K)   18.1482  18.1607  18.1732  18.1856  18.1981  18.2104  18.2228  18.0461
 CONDUCTIVITY     11.1486  11.1906  11.2327  11.2750  11.3173  11.3598  11.4024  10.8131
 PRANDTL NUMBER    0.7034   0.7033   0.7033   0.7032   0.7032   0.7031   0.7030   0.7038

 MOLE FRACTIONS

 *H               0.00981  0.01016  0.01052  0.01090  0.01128  0.01168  0.01208  0.00693
 *H2              0.99019  0.98984  0.98948  0.98910  0.98872  0.98832  0.98792  0.99307

  * THERMODYNAMIC PROPERTIES FITTED TO 20000.K

 NOTE. WEIGHT FRACTION OF FUEL IN TOTAL FUELS AND OF OXIDANT IN TOTAL OXIDANTS









               THERMODYNAMIC EQUILIBRIUM PROPERTIES AT ASSIGNED

                           TEMPERATURE AND PRESSURE

 CASE =                

             REACTANT                    WT FRACTION      ENERGY      TEMP
                                          (SEE NOTE)     KJ/KG-MOL      K  
             H2                           1.0000000         0.000      0.000

 O/F=    0.00000  %FUEL=100.000000  R,EQ.RATIO= 0.000000  PHI,EQ.RATIO= 0.000000

 THERMODYNAMIC PROPERTIES

 P, BAR            67.000   67.000   67.000   67.000   67.000   67.000   67.000   67.000
 T, K             2710.00  2720.00  2730.00  2740.00  2750.00  2760.00  2770.00  2780.00
 RHO, KG/CU M    5.9727-1 5.9499-1 5.9273-1 5.9048-1 5.8824-1 5.8602-1 5.8381-1 5.8162-1
 H, KJ/KG         39551.3  39763.2  39976.2  40190.3  40405.5  40621.9  40839.4  41058.2
 U, KJ/KG         28333.6  28502.5  28672.5  28843.6  29015.7  29188.9  29363.1  29538.6
 G, KJ/KG       -182079.6-182897.8-183716.8-184536.6-185357.1-186178.5-187000.6-187823.5
 S, KJ/(KG)(K)    81.7826  81.8607  81.9388  82.0171  82.0955  82.1741  82.2527  82.3315

 M, (1/n)           2.009    2.008    2.008    2.008    2.007    2.007    2.007    2.007
 (dLV/dLP)t      -1.00180 -1.00187 -1.00194 -1.00201 -1.00208 -1.00216 -1.00224 -1.00232
 (dLV/dLT)p        1.0366   1.0378   1.0391   1.0404   1.0418   1.0432   1.0446   1.0460
 Cp, KJ/(KG)(K)   21.1373  21.2446  21.3540  21.4654  21.5790  21.6947  21.8125  21.9326
 GAMMAs            1.2636   1.2627   1.2617   1.2608   1.2598   1.2588   1.2579   1.2569
 SON VEL,M/SEC     3765.0   3770.7   3776.5   3782.3   3788.0   3793.7   3799.5   3805.2

 TRANSPORT PROPERTIES (GASES ONLY)
   CONDUCTIVITY IN UNITS OF MILLIWATTS/(CM)(K)

 VISC,MILLIPOISE  0.42298  0.42425  0.42553  0.42681  0.42809  0.42938  0.43066  0.43195

  WITH EQUILIBRIUM REACTIONS

 Cp, KJ/(KG)(K)   21.1373  21.2446  21.3540  21.4654  21.5790  21.6947  21.8125  21.9326
 CONDUCTIVITY     14.4641  14.6272  14.7935  14.9631  15.1360  15.3123  15.4921  15.6753
 PRANDTL NUMBER    0.6181   0.6162   0.6142   0.6123   0.6103   0.6083   0.6064   0.6044

  WITH FROZEN REACTIONS

 Cp, KJ/(KG)(K)   18.0589  18.0717  18.0844  18.0971  18.1098  18.1224  18.1350  18.1475
 CONDUCTIVITY     10.8540  10.8951  10.9363  10.9776  11.0190  11.0604  11.1020  11.1437
 PRANDTL NUMBER    0.7037   0.7037   0.7037   0.7036   0.7036   0.7035   0.7035   0.7034

 MOLE FRACTIONS

 *H               0.00719  0.00747  0.00775  0.00804  0.00834  0.00864  0.00896  0.00928
 *H2              0.99281  0.99253  0.99225  0.99196  0.99166  0.99136  0.99104  0.99072

  * THERMODYNAMIC PROPERTIES FITTED TO 20000.K

 NOTE. WEIGHT FRACTION OF FUEL IN TOTAL FUELS AND OF OXIDANT IN TOTAL OXIDANTS









               THERMODYNAMIC EQUILIBRIUM PROPERTIES AT ASSIGNED

                           TEMPERATURE AND PRESSURE

 CASE =                

             REACTANT                    WT FRACTION      ENERGY      TEMP
                                          (SEE NOTE)     KJ/KG-MOL      K  
             H2                           1.0000000         0.000      0.000

 O/F=    0.00000  %FUEL=100.000000  R,EQ.RATIO= 0.000000  PHI,EQ.RATIO= 0.000000

 THERMODYNAMIC PROPERTIES

 P, BAR            67.000   67.000   67.000   67.000   67.000   67.000   74.000   74.000
 T, K             2790.00  2800.00  2810.00  2820.00  2830.00  2840.00  2700.00  2710.00
 RHO, KG/CU M    5.7944-1 5.7727-1 5.7511-1 5.7297-1 5.7083-1 5.6871-1 6.6231-1 6.5978-1
 H, KJ/KG         41278.1  41499.3  41721.7  41945.4  42170.4  42396.7  39302.2  39511.6
 U, KJ/KG         29715.1  29892.8  30071.7  30251.8  30433.2  30615.8  28129.2  28295.7
 G, KJ/KG       -188647.3-189471.8-190297.0-191123.1-191950.0-192777.7-180151.8-180964.9
 S, KJ/(KG)(K)    82.4105  82.4897  82.5689  82.6484  82.7281  82.8079  81.2793  81.3566

 M, (1/n)           2.006    2.006    2.005    2.005    2.005    2.004    2.009    2.009
 (dLV/dLP)t      -1.00240 -1.00249 -1.00258 -1.00267 -1.00276 -1.00286 -1.00165 -1.00171
 (dLV/dLT)p        1.0475   1.0491   1.0506   1.0522   1.0539   1.0556   1.0336   1.0348
 Cp, KJ/(KG)(K)   22.0549  22.1794  22.3062  22.4352  22.5666  22.7003  20.8869  20.9876
 GAMMAs            1.2560   1.2550   1.2540   1.2531   1.2521   1.2512   1.2659   1.2649
 SON VEL,M/SEC     3810.9   3816.6   3822.3   3827.9   3833.6   3839.3   3760.8   3766.6

 TRANSPORT PROPERTIES (GASES ONLY)
   CONDUCTIVITY IN UNITS OF MILLIWATTS/(CM)(K)

 VISC,MILLIPOISE  0.43325  0.43454  0.43584  0.43714  0.43844  0.43975  0.42162  0.42289

  WITH EQUILIBRIUM REACTIONS

 Cp, KJ/(KG)(K)   22.0549  22.1794  22.3062  22.4352  22.5666  22.7003  20.8869  20.9876
 CONDUCTIVITY     15.8620  16.0524  16.2463  16.4440  16.6454  16.8506  14.1325  14.2865
 PRANDTL NUMBER    0.6024   0.6004   0.5984   0.5964   0.5944   0.5924   0.6231   0.6212

  WITH FROZEN REACTIONS

 Cp, KJ/(KG)(K)   18.1600  18.1725  18.1849  18.1973  18.2097  18.2220  18.0456  18.0584
 CONDUCTIVITY     11.1855  11.2275  11.2695  11.3117  11.3539  11.3963  10.8100  10.8508
 PRANDTL NUMBER    0.7034   0.7033   0.7033   0.7032   0.7032   0.7031   0.7038   0.7038

 MOLE FRACTIONS

 *H               0.00962  0.00996  0.01032  0.01068  0.01105  0.01144  0.00659  0.00685
 *H2              0.99038  0.99004  0.98968  0.98932  0.98895  0.98856  0.99341  0.99315

  * THERMODYNAMIC PROPERTIES FITTED TO 20000.K

 NOTE. WEIGHT FRACTION OF FUEL IN TOTAL FUELS AND OF OXIDANT IN TOTAL OXIDANTS









               THERMODYNAMIC EQUILIBRIUM PROPERTIES AT ASSIGNED

                           TEMPERATURE AND PRESSURE

 CASE =                

             REACTANT                    WT FRACTION      ENERGY      TEMP
                                          (SEE NOTE)     KJ/KG-MOL      K  
             H2                           1.0000000         0.000      0.000

 O/F=    0.00000  %FUEL=100.000000  R,EQ.RATIO= 0.000000  PHI,EQ.RATIO= 0.000000

 THERMODYNAMIC PROPERTIES

 P, BAR            74.000   74.000   74.000   74.000   74.000   74.000   74.000   74.000
 T, K             2720.00  2730.00  2740.00  2750.00  2760.00  2770.00  2780.00  2790.00
 RHO, KG/CU M    6.5727-1 6.5478-1 6.5230-1 6.4983-1 6.4738-1 6.4495-1 6.4253-1 6.4012-1
 H, KJ/KG         39721.9  39933.4  40145.8  40359.4  40574.1  40789.8  41006.7  41224.8
 U, KJ/KG         28463.3  28631.8  28801.3  28971.8  29143.4  29316.0  29489.7  29664.5
 G, KJ/KG       -181778.9-182593.6-183409.1-184225.4-185042.5-185860.3-186678.9-187498.3
 S, KJ/(KG)(K)    81.4341  81.5117  81.5894  81.6672  81.7451  81.8232  81.9013  81.9796

 M, (1/n)           2.009    2.008    2.008    2.008    2.008    2.007    2.007    2.007
 (dLV/dLP)t      -1.00178 -1.00184 -1.00191 -1.00198 -1.00206 -1.00213 -1.00221 -1.00229
 (dLV/dLT)p        1.0360   1.0372   1.0385   1.0398   1.0411   1.0424   1.0438   1.0452
 Cp, KJ/(KG)(K)   21.0903  21.1950  21.3016  21.4103  21.5210  21.6337  21.7486  21.8655
 GAMMAs            1.2640   1.2631   1.2621   1.2612   1.2603   1.2593   1.2584   1.2575
 SON VEL,M/SEC     3772.4   3778.2   3784.0   3789.7   3795.5   3801.2   3807.0   3812.7

 TRANSPORT PROPERTIES (GASES ONLY)
   CONDUCTIVITY IN UNITS OF MILLIWATTS/(CM)(K)

 VISC,MILLIPOISE  0.42416  0.42544  0.42671  0.42799  0.42927  0.43056  0.43184  0.43313

  WITH EQUILIBRIUM REACTIONS

 Cp, KJ/(KG)(K)   21.0903  21.1950  21.3016  21.4103  21.5210  21.6337  21.7486  21.8655
 CONDUCTIVITY     14.4436  14.6038  14.7671  14.9335  15.1032  15.2761  15.4524  15.6320
 PRANDTL NUMBER    0.6194   0.6175   0.6155   0.6136   0.6117   0.6097   0.6078   0.6058

  WITH FROZEN REACTIONS

 Cp, KJ/(KG)(K)   18.0712  18.0839  18.0966  18.1093  18.1219  18.1344  18.1470  18.1595
 CONDUCTIVITY     10.8918  10.9328  10.9740  11.0152  11.0565  11.0980  11.1395  11.1812
 PRANDTL NUMBER    0.7038   0.7037   0.7037   0.7036   0.7036   0.7035   0.7035   0.7035

 MOLE FRACTIONS

 *H               0.00711  0.00737  0.00765  0.00793  0.00823  0.00853  0.00884  0.00915
 *H2              0.99289  0.99263  0.99235  0.99207  0.99177  0.99147  0.99116  0.99085

  * THERMODYNAMIC PROPERTIES FITTED TO 20000.K

 NOTE. WEIGHT FRACTION OF FUEL IN TOTAL FUELS AND OF OXIDANT IN TOTAL OXIDANTS









               THERMODYNAMIC EQUILIBRIUM PROPERTIES AT ASSIGNED

                           TEMPERATURE AND PRESSURE

 CASE =                

             REACTANT                    WT FRACTION      ENERGY      TEMP
                                          (SEE NOTE)     KJ/KG-MOL      K  
             H2                           1.0000000         0.000      0.000

 O/F=    0.00000  %FUEL=100.000000  R,EQ.RATIO= 0.000000  PHI,EQ.RATIO= 0.000000

 THERMODYNAMIC PROPERTIES

 P, BAR            74.000   74.000   74.000   74.000   74.000   82.500   82.500   82.500
 T, K             2800.00  2810.00  2820.00  2830.00  2840.00  2700.00  2710.00  2720.00
 RHO, KG/CU M    6.3773-1 6.3535-1 6.3299-1 6.3064-1 6.2831-1 7.3852-1 7.3570-1 7.3291-1
 H, KJ/KG         41444.1  41664.5  41886.2  42109.1  42333.3  39262.4  39470.2  39679.0
 U, KJ/KG         29840.4  30017.5  30195.7  30375.0  30555.6  28091.3  28256.5  28422.5
 G, KJ/KG       -188318.5-189139.5-189961.3-190783.8-191607.2-178937.0-179745.5-180554.8
 S, KJ/(KG)(K)    82.0581  82.1367  82.2154  82.2943  82.3734  80.8146  80.8914  80.9683

 M, (1/n)           2.006    2.006    2.006    2.005    2.005    2.010    2.009    2.009
 (dLV/dLP)t      -1.00237 -1.00245 -1.00254 -1.00263 -1.00272 -1.00156 -1.00162 -1.00168
 (dLV/dLT)p        1.0467   1.0482   1.0497   1.0513   1.0529   1.0319   1.0330   1.0341
 Cp, KJ/(KG)(K)   21.9846  22.1058  22.2292  22.3548  22.4826  20.7361  20.8322  20.9301
 GAMMAs            1.2565   1.2556   1.2546   1.2537   1.2528   1.2672   1.2663   1.2654
 SON VEL,M/SEC     3818.4   3824.1   3829.8   3835.5   3841.2   3762.5   3768.4   3774.2

 TRANSPORT PROPERTIES (GASES ONLY)
   CONDUCTIVITY IN UNITS OF MILLIWATTS/(CM)(K)

 VISC,MILLIPOISE  0.43442  0.43572  0.43701  0.43831  0.43961  0.42154  0.42280  0.42407

  WITH EQUILIBRIUM REACTIONS

 Cp, KJ/(KG)(K)   21.9846  22.1058  22.2292  22.3548  22.4826  20.7361  20.8322  20.9301
 CONDUCTIVITY     15.8151  16.0016  16.1916  16.3852  16.5825  13.9540  14.1020  14.2528
 PRANDTL NUMBER    0.6039   0.6019   0.6000   0.5980   0.5960   0.6264   0.6246   0.6227

  WITH FROZEN REACTIONS

 Cp, KJ/(KG)(K)   18.1719  18.1843  18.1967  18.2090  18.2213  18.0452  18.0580  18.0707
 CONDUCTIVITY     11.2229  11.2648  11.3068  11.3489  11.3911  10.8068  10.8475  10.8883
 PRANDTL NUMBER    0.7034   0.7034   0.7033   0.7033   0.7032   0.7039   0.7038   0.7038

 MOLE FRACTIONS

 *H               0.00948  0.00982  0.01016  0.01052  0.01089  0.00625  0.00649  0.00673
 *H2              0.99052  0.99018  0.98984  0.98948  0.98911  0.99375  0.99351  0.99327

  * THERMODYNAMIC PROPERTIES FITTED TO 20000.K

 NOTE. WEIGHT FRACTION OF FUEL IN TOTAL FUELS AND OF OXIDANT IN TOTAL OXIDANTS









               THERMODYNAMIC EQUILIBRIUM PROPERTIES AT ASSIGNED

                           TEMPERATURE AND PRESSURE

 CASE =                

             REACTANT                    WT FRACTION      ENERGY      TEMP
                                          (SEE NOTE)     KJ/KG-MOL      K  
             H2                           1.0000000         0.000      0.000

 O/F=    0.00000  %FUEL=100.000000  R,EQ.RATIO= 0.000000  PHI,EQ.RATIO= 0.000000

 THERMODYNAMIC PROPERTIES

 P, BAR            82.500   82.500   82.500   82.500   82.500   82.500   82.500   82.500
 T, K             2730.00  2740.00  2750.00  2760.00  2770.00  2780.00  2790.00  2800.00
 RHO, KG/CU M    7.3013-1 7.2737-1 7.2463-1 7.2190-1 7.1919-1 7.1650-1 7.1382-1 7.1116-1
 H, KJ/KG         39888.8  40099.7  40311.5  40524.4  40738.3  40953.3  41169.5  41386.7
 U, KJ/KG         28589.5  28757.4  28926.3  29096.2  29267.1  29439.0  29612.0  29786.0
 G, KJ/KG       -181364.9-182175.7-182987.3-183799.7-184612.9-185426.8-186241.5-187057.0
 S, KJ/(KG)(K)    81.0453  81.1224  81.1996  81.2768  81.3542  81.4317  81.5093  81.5870

 M, (1/n)           2.009    2.009    2.008    2.008    2.008    2.007    2.007    2.007
 (dLV/dLP)t      -1.00175 -1.00181 -1.00188 -1.00195 -1.00202 -1.00209 -1.00217 -1.00225
 (dLV/dLT)p        1.0353   1.0364   1.0377   1.0389   1.0402   1.0415   1.0429   1.0442
 Cp, KJ/(KG)(K)   21.0299  21.1315  21.2351  21.3406  21.4480  21.5574  21.6688  21.7822
 GAMMAs            1.2645   1.2636   1.2627   1.2618   1.2609   1.2600   1.2590   1.2581
 SON VEL,M/SEC     3780.0   3785.8   3791.6   3797.4   3803.1   3808.9   3814.6   3820.4

 TRANSPORT PROPERTIES (GASES ONLY)
   CONDUCTIVITY IN UNITS OF MILLIWATTS/(CM)(K)

 VISC,MILLIPOISE  0.42534  0.42662  0.42789  0.42917  0.43045  0.43173  0.43301  0.43430

  WITH EQUILIBRIUM REACTIONS

 Cp, KJ/(KG)(K)   21.0299  21.1315  21.2351  21.3406  21.4480  21.5574  21.6688  21.7822
 CONDUCTIVITY     14.4066  14.5633  14.7231  14.8859  15.0517  15.2208  15.3930  15.5685
 PRANDTL NUMBER    0.6209   0.6190   0.6171   0.6153   0.6134   0.6115   0.6096   0.6076

  WITH FROZEN REACTIONS

 Cp, KJ/(KG)(K)   18.0834  18.0961  18.1087  18.1213  18.1339  18.1464  18.1589  18.1713
 CONDUCTIVITY     10.9292  10.9702  11.0113  11.0525  11.0938  11.1352  11.1766  11.2182
 PRANDTL NUMBER    0.7038   0.7037   0.7037   0.7036   0.7036   0.7036   0.7035   0.7035

 MOLE FRACTIONS

 *H               0.00699  0.00725  0.00752  0.00779  0.00808  0.00837  0.00867  0.00898
 *H2              0.99301  0.99275  0.99248  0.99221  0.99192  0.99163  0.99133  0.99102

  * THERMODYNAMIC PROPERTIES FITTED TO 20000.K

 NOTE. WEIGHT FRACTION OF FUEL IN TOTAL FUELS AND OF OXIDANT IN TOTAL OXIDANTS









               THERMODYNAMIC EQUILIBRIUM PROPERTIES AT ASSIGNED

                           TEMPERATURE AND PRESSURE

 CASE =                

             REACTANT                    WT FRACTION      ENERGY      TEMP
                                          (SEE NOTE)     KJ/KG-MOL      K  
             H2                           1.0000000         0.000      0.000

 O/F=    0.00000  %FUEL=100.000000  R,EQ.RATIO= 0.000000  PHI,EQ.RATIO= 0.000000

 THERMODYNAMIC PROPERTIES

 P, BAR            82.500   82.500   82.500   82.500   91.000   91.000   91.000   91.000
 T, K             2810.00  2820.00  2830.00  2840.00  2700.00  2710.00  2720.00  2730.00
 RHO, KG/CU M    7.0852-1 7.0589-1 7.0328-1 7.0068-1 8.1473-1 8.1163-1 8.0855-1 8.0549-1
 H, KJ/KG         41605.1  41824.7  42045.4  42267.4  39228.3  39434.9  39642.3  39850.7
 U, KJ/KG         29961.1  30137.3  30314.6  30493.1  28058.9  28222.8  28387.6  28553.2
 G, KJ/KG       -187873.3-188690.3-189508.1-190326.7-177841.7-178646.0-179451.1-180257.0
 S, KJ/(KG)(K)    81.6649  81.7429  81.8210  81.8993  80.3963  80.4726  80.5490  80.6255

 M, (1/n)           2.007    2.006    2.006    2.005    2.010    2.010    2.009    2.009
 (dLV/dLP)t      -1.00233 -1.00241 -1.00249 -1.00258 -1.00149 -1.00154 -1.00160 -1.00166
 (dLV/dLT)p        1.0457   1.0471   1.0486   1.0501   1.0303   1.0314   1.0325   1.0336
 Cp, KJ/(KG)(K)   21.8977  22.0152  22.1348  22.2565  20.6069  20.6990  20.7929  20.8885
 GAMMAs            1.2572   1.2563   1.2554   1.2544   1.2684   1.2676   1.2667   1.2658
 SON VEL,M/SEC     3826.1   3831.8   3837.5   3843.2   3764.0   3769.9   3775.7   3781.6

 TRANSPORT PROPERTIES (GASES ONLY)
   CONDUCTIVITY IN UNITS OF MILLIWATTS/(CM)(K)

 VISC,MILLIPOISE  0.43559  0.43688  0.43817  0.43947  0.42146  0.42273  0.42399  0.42526

  WITH EQUILIBRIUM REACTIONS

 Cp, KJ/(KG)(K)   21.8977  22.0152  22.1348  22.2565  20.6069  20.6990  20.7929  20.8885
 CONDUCTIVITY     15.7473  15.9294  16.1148  16.3038  13.8011  13.9439  14.0894  14.2377
 PRANDTL NUMBER    0.6057   0.6038   0.6019   0.5999   0.6293   0.6275   0.6257   0.6239

  WITH FROZEN REACTIONS

 Cp, KJ/(KG)(K)   18.1837  18.1960  18.2083  18.2206  18.0448  18.0576  18.0703  18.0830
 CONDUCTIVITY     11.2599  11.3017  11.3436  11.3857  10.8041  10.8446  10.8853  10.9261
 PRANDTL NUMBER    0.7034   0.7034   0.7033   0.7033   0.7039   0.7039   0.7039   0.7038

 MOLE FRACTIONS

 *H               0.00930  0.00963  0.00997  0.01031  0.00595  0.00618  0.00641  0.00665
 *H2              0.99070  0.99037  0.99003  0.98969  0.99405  0.99382  0.99359  0.99335

  * THERMODYNAMIC PROPERTIES FITTED TO 20000.K

 NOTE. WEIGHT FRACTION OF FUEL IN TOTAL FUELS AND OF OXIDANT IN TOTAL OXIDANTS









               THERMODYNAMIC EQUILIBRIUM PROPERTIES AT ASSIGNED

                           TEMPERATURE AND PRESSURE

 CASE =                

             REACTANT                    WT FRACTION      ENERGY      TEMP
                                          (SEE NOTE)     KJ/KG-MOL      K  
             H2                           1.0000000         0.000      0.000

 O/F=    0.00000  %FUEL=100.000000  R,EQ.RATIO= 0.000000  PHI,EQ.RATIO= 0.000000

 THERMODYNAMIC PROPERTIES

 P, BAR            91.000   91.000   91.000   91.000   91.000   91.000   91.000   91.000
 T, K             2740.00  2750.00  2760.00  2770.00  2780.00  2790.00  2800.00  2810.00
 RHO, KG/CU M    8.0245-1 7.9943-1 7.9643-1 7.9344-1 7.9048-1 7.8753-1 7.8460-1 7.8169-1
 H, KJ/KG         40060.1  40270.4  40481.8  40694.2  40907.6  41122.1  41337.6  41554.2
 U, KJ/KG         28719.8  28887.3  29055.8  29225.2  29395.6  29567.0  29739.4  29912.8
 G, KJ/KG       -181063.6-181871.0-182679.2-183488.1-184297.8-185108.3-185919.5-186731.6
 S, KJ/(KG)(K)    80.7021  80.7787  80.8554  80.9322  81.0091  81.0861  81.1633  81.2405

 M, (1/n)           2.009    2.009    2.008    2.008    2.008    2.008    2.007    2.007
 (dLV/dLP)t      -1.00173 -1.00179 -1.00186 -1.00192 -1.00199 -1.00206 -1.00214 -1.00221
 (dLV/dLT)p        1.0347   1.0359   1.0371   1.0383   1.0395   1.0408   1.0421   1.0435
 Cp, KJ/(KG)(K)   20.9859  21.0851  21.1861  21.2890  21.3937  21.5004  21.6089  21.7194
 GAMMAs            1.2649   1.2640   1.2631   1.2622   1.2613   1.2604   1.2595   1.2586
 SON VEL,M/SEC     3787.4   3793.2   3799.0   3804.8   3810.5   3816.3   3822.1   3827.8

 TRANSPORT PROPERTIES (GASES ONLY)
   CONDUCTIVITY IN UNITS OF MILLIWATTS/(CM)(K)

 VISC,MILLIPOISE  0.42653  0.42780  0.42908  0.43035  0.43163  0.43291  0.43419  0.43548

  WITH EQUILIBRIUM REACTIONS

 Cp, KJ/(KG)(K)   20.9859  21.0851  21.1861  21.2890  21.3937  21.5004  21.6089  21.7194
 CONDUCTIVITY     14.3888  14.5428  14.6997  14.8595  15.0223  15.1882  15.3572  15.5293
 PRANDTL NUMBER    0.6221   0.6203   0.6184   0.6166   0.6147   0.6128   0.6109   0.6091

  WITH FROZEN REACTIONS

 Cp, KJ/(KG)(K)   18.0957  18.1083  18.1209  18.1334  18.1459  18.1583  18.1707  18.1831
 CONDUCTIVITY     10.9670  11.0080  11.0490  11.0902  11.1314  11.1727  11.2142  11.2557
 PRANDTL NUMBER    0.7038   0.7037   0.7037   0.7037   0.7036   0.7036   0.7035   0.7035

 MOLE FRACTIONS

 *H               0.00690  0.00716  0.00742  0.00769  0.00797  0.00826  0.00855  0.00886
 *H2              0.99310  0.99284  0.99258  0.99231  0.99203  0.99174  0.99145  0.99114

  * THERMODYNAMIC PROPERTIES FITTED TO 20000.K

 NOTE. WEIGHT FRACTION OF FUEL IN TOTAL FUELS AND OF OXIDANT IN TOTAL OXIDANTS









               THERMODYNAMIC EQUILIBRIUM PROPERTIES AT ASSIGNED

                           TEMPERATURE AND PRESSURE

 CASE =                

             REACTANT                    WT FRACTION      ENERGY      TEMP
                                          (SEE NOTE)     KJ/KG-MOL      K  
             H2                           1.0000000         0.000      0.000

 O/F=    0.00000  %FUEL=100.000000  R,EQ.RATIO= 0.000000  PHI,EQ.RATIO= 0.000000

 THERMODYNAMIC PROPERTIES

 P, BAR            91.000   91.000   91.000   100.00   100.00   100.00   100.00   100.00
 T, K             2820.00  2830.00  2840.00  2700.00  2710.00  2720.00  2730.00  2740.00
 RHO, KG/CU M    7.7880-1 7.7592-1 7.7306-1 8.9543-1 8.9203-1 8.8865-1 8.8529-1 8.8195-1
 H, KJ/KG         41772.0  41990.9  42210.9  39197.1  39402.4  39608.6  39815.8  40023.8
 U, KJ/KG         30087.3  30262.9  30439.5  28029.3  28192.0  28355.6  28520.0  28685.4
 G, KJ/KG       -187544.3-188357.9-189172.3-176788.3-177588.6-178389.7-179191.6-179994.2
 S, KJ/(KG)(K)    81.3179  81.3953  81.4730  79.9946  80.0705  80.1465  80.2225  80.2985

 M, (1/n)           2.007    2.006    2.006    2.010    2.010    2.010    2.009    2.009
 (dLV/dLP)t      -1.00229 -1.00237 -1.00246 -1.00142 -1.00147 -1.00153 -1.00159 -1.00165
 (dLV/dLT)p        1.0449   1.0463   1.0477   1.0290   1.0300   1.0310   1.0320   1.0331
 Cp, KJ/(KG)(K)   21.8319  21.9463  22.0628  20.4886  20.5770  20.6671  20.7589  20.8523
 GAMMAs            1.2577   1.2568   1.2559   1.2696   1.2687   1.2678   1.2670   1.2661
 SON VEL,M/SEC     3833.5   3839.3   3845.0   3765.4   3771.3   3777.2   3783.0   3788.9

 TRANSPORT PROPERTIES (GASES ONLY)
   CONDUCTIVITY IN UNITS OF MILLIWATTS/(CM)(K)

 VISC,MILLIPOISE  0.43676  0.43805  0.43934  0.42140  0.42266  0.42392  0.42519  0.42645

  WITH EQUILIBRIUM REACTIONS

 Cp, KJ/(KG)(K)   21.8319  21.9463  22.0628  20.4886  20.5770  20.6671  20.7589  20.8523
 CONDUCTIVITY     15.7046  15.8831  16.0649  13.6610  13.7989  13.9395  14.0828  14.2287
 PRANDTL NUMBER    0.6072   0.6053   0.6034   0.6320   0.6303   0.6285   0.6267   0.6250

  WITH FROZEN REACTIONS

 Cp, KJ/(KG)(K)   18.1955  18.2078  18.2200  18.0444  18.0572  18.0699  18.0826  18.0953
 CONDUCTIVITY     11.2974  11.3391  11.3810  10.8015  10.8420  10.8826  10.9233  10.9640
 PRANDTL NUMBER    0.7034   0.7034   0.7034   0.7040   0.7039   0.7039   0.7039   0.7038

 MOLE FRACTIONS

 *H               0.00917  0.00949  0.00982  0.00568  0.00589  0.00612  0.00635  0.00658
 *H2              0.99083  0.99051  0.99018  0.99432  0.99411  0.99388  0.99365  0.99342

  * THERMODYNAMIC PROPERTIES FITTED TO 20000.K

 NOTE. WEIGHT FRACTION OF FUEL IN TOTAL FUELS AND OF OXIDANT IN TOTAL OXIDANTS









               THERMODYNAMIC EQUILIBRIUM PROPERTIES AT ASSIGNED

                           TEMPERATURE AND PRESSURE

 CASE =                

             REACTANT                    WT FRACTION      ENERGY      TEMP
                                          (SEE NOTE)     KJ/KG-MOL      K  
             H2                           1.0000000         0.000      0.000

 O/F=    0.00000  %FUEL=100.000000  R,EQ.RATIO= 0.000000  PHI,EQ.RATIO= 0.000000

 THERMODYNAMIC PROPERTIES

 P, BAR            100.00   100.00   100.00   100.00   100.00   100.00   100.00   100.00
 T, K             2750.00  2760.00  2770.00  2780.00  2790.00  2800.00  2810.00  2820.00
 RHO, KG/CU M    8.7864-1 8.7534-1 8.7207-1 8.6882-1 8.6558-1 8.6237-1 8.5918-1 8.5600-1
 H, KJ/KG         40232.8  40442.8  40653.7  40865.7  41078.6  41292.6  41507.6  41723.7
 U, KJ/KG         28851.6  29018.7  29186.8  29355.8  29525.7  29696.6  29868.6  30041.5
 G, KJ/KG       -180797.5-181601.7-182406.6-183212.2-184018.6-184825.8-185633.8-186442.5
 S, KJ/(KG)(K)    80.3747  80.4509  80.5272  80.6035  80.6800  80.7566  80.8332  80.9100

 M, (1/n)           2.009    2.009    2.008    2.008    2.008    2.008    2.007    2.007
 (dLV/dLP)t      -1.00171 -1.00177 -1.00183 -1.00190 -1.00197 -1.00204 -1.00211 -1.00219
 (dLV/dLT)p        1.0342   1.0354   1.0365   1.0377   1.0389   1.0402   1.0415   1.0428
 Cp, KJ/(KG)(K)   20.9475  21.0445  21.1432  21.2437  21.3460  21.4501  21.5560  21.6639
 GAMMAs            1.2652   1.2643   1.2635   1.2626   1.2617   1.2608   1.2599   1.2591
 SON VEL,M/SEC     3794.7   3800.5   3806.3   3812.1   3817.9   3823.7   3829.4   3835.2

 TRANSPORT PROPERTIES (GASES ONLY)
   CONDUCTIVITY IN UNITS OF MILLIWATTS/(CM)(K)

 VISC,MILLIPOISE  0.42772  0.42899  0.43026  0.43154  0.43281  0.43409  0.43537  0.43666

  WITH EQUILIBRIUM REACTIONS

 Cp, KJ/(KG)(K)   20.9475  21.0445  21.1432  21.2437  21.3460  21.4501  21.5560  21.6639
 CONDUCTIVITY     14.3774  14.5289  14.6832  14.8404  15.0004  15.1635  15.3295  15.4985
 PRANDTL NUMBER    0.6232   0.6214   0.6196   0.6177   0.6159   0.6141   0.6122   0.6104

  WITH FROZEN REACTIONS

 Cp, KJ/(KG)(K)   18.1079  18.1204  18.1329  18.1454  18.1579  18.1703  18.1826  18.1949
 CONDUCTIVITY     11.0049  11.0458  11.0868  11.1280  11.1692  11.2105  11.2519  11.2934
 PRANDTL NUMBER    0.7038   0.7038   0.7037   0.7037   0.7036   0.7036   0.7035   0.7035

 MOLE FRACTIONS

 *H               0.00683  0.00708  0.00734  0.00761  0.00788  0.00816  0.00845  0.00875
 *H2              0.99317  0.99292  0.99266  0.99239  0.99212  0.99184  0.99155  0.99125

  * THERMODYNAMIC PROPERTIES FITTED TO 20000.K

 NOTE. WEIGHT FRACTION OF FUEL IN TOTAL FUELS AND OF OXIDANT IN TOTAL OXIDANTS









               THERMODYNAMIC EQUILIBRIUM PROPERTIES AT ASSIGNED

                           TEMPERATURE AND PRESSURE

 CASE =                

             REACTANT                    WT FRACTION      ENERGY      TEMP
                                          (SEE NOTE)     KJ/KG-MOL      K  
             H2                           1.0000000         0.000      0.000

 O/F=    0.00000  %FUEL=100.000000  R,EQ.RATIO= 0.000000  PHI,EQ.RATIO= 0.000000

 THERMODYNAMIC PROPERTIES

 P, BAR            100.00   100.00   110.00   110.00   110.00   110.00   110.00   110.00
 T, K             2830.00  2840.00  2700.00  2710.00  2720.00  2730.00  2740.00  2750.00
 RHO, KG/CU M    8.5285-1 8.4971-1 9.8510-1 9.8136-1 9.7765-1 9.7396-1 9.7030-1 9.6666-1
 H, KJ/KG         41940.9  42159.2  39167.0  39371.2  39576.2  39782.1  39988.9  40196.6
 U, KJ/KG         30215.4  30390.4  28000.6  28162.3  28324.7  28488.0  28652.1  28817.1
 G, KJ/KG       -187252.0-188062.2-175724.0-176520.2-177317.3-178115.0-178913.6-179712.9
 S, KJ/(KG)(K)    80.9869  81.0639  79.5893  79.6647  79.7402  79.8158  79.8914  79.9671

 M, (1/n)           2.007    2.006    2.010    2.010    2.010    2.010    2.010    2.009
 (dLV/dLP)t      -1.00226 -1.00234 -1.00135 -1.00140 -1.00146 -1.00151 -1.00157 -1.00163
 (dLV/dLT)p        1.0441   1.0455   1.0276   1.0286   1.0295   1.0305   1.0316   1.0326
 Cp, KJ/(KG)(K)   21.7736  21.8852  20.3745  20.4594  20.5459  20.6339  20.7236  20.8150
 GAMMAs            1.2582   1.2573   1.2706   1.2698   1.2690   1.2681   1.2673   1.2664
 SON VEL,M/SEC     3840.9   3846.6   3766.8   3772.7   3778.6   3784.4   3790.3   3796.2

 TRANSPORT PROPERTIES (GASES ONLY)
   CONDUCTIVITY IN UNITS OF MILLIWATTS/(CM)(K)

 VISC,MILLIPOISE  0.43794  0.43923  0.42133  0.42259  0.42385  0.42511  0.42638  0.42764

  WITH EQUILIBRIUM REACTIONS

 Cp, KJ/(KG)(K)   21.7736  21.8852  20.3745  20.4594  20.5459  20.6339  20.7236  20.8150
 CONDUCTIVITY     15.6707  15.8459  13.5258  13.6592  13.7951  13.9335  14.0744  14.2180
 PRANDTL NUMBER    0.6085   0.6066   0.6347   0.6330   0.6313   0.6295   0.6278   0.6261

  WITH FROZEN REACTIONS

 Cp, KJ/(KG)(K)   18.2072  18.2195  18.0441  18.0568  18.0696  18.0822  18.0949  18.1075
 CONDUCTIVITY     11.3350  11.3767  10.7991  10.8395  10.8800  10.9205  10.9612  11.0019
 PRANDTL NUMBER    0.7035   0.7034   0.7040   0.7040   0.7039   0.7039   0.7039   0.7038

 MOLE FRACTIONS

 *H               0.00906  0.00937  0.00541  0.00562  0.00583  0.00605  0.00628  0.00651
 *H2              0.99094  0.99063  0.99459  0.99438  0.99417  0.99395  0.99372  0.99349

  * THERMODYNAMIC PROPERTIES FITTED TO 20000.K

 NOTE. WEIGHT FRACTION OF FUEL IN TOTAL FUELS AND OF OXIDANT IN TOTAL OXIDANTS









               THERMODYNAMIC EQUILIBRIUM PROPERTIES AT ASSIGNED

                           TEMPERATURE AND PRESSURE

 CASE =                

             REACTANT                    WT FRACTION      ENERGY      TEMP
                                          (SEE NOTE)     KJ/KG-MOL      K  
             H2                           1.0000000         0.000      0.000

 O/F=    0.00000  %FUEL=100.000000  R,EQ.RATIO= 0.000000  PHI,EQ.RATIO= 0.000000

 THERMODYNAMIC PROPERTIES

 P, BAR            110.00   110.00   110.00   110.00   110.00   110.00   110.00   110.00
 T, K             2760.00  2770.00  2780.00  2790.00  2800.00  2810.00  2820.00  2830.00
 RHO, KG/CU M    9.6304-1 9.5944-1 9.5587-1 9.5232-1 9.4879-1 9.4528-1 9.4179-1 9.3833-1
 H, KJ/KG         40405.2  40614.7  40825.2  41036.7  41249.2  41462.7  41677.2  41892.7
 U, KJ/KG         28983.0  29149.7  29317.4  29486.0  29655.5  29825.9  29997.3  30169.7
 G, KJ/KG       -180512.9-181313.7-182115.3-182917.6-183720.7-184524.5-185329.2-186134.5
 S, KJ/(KG)(K)    80.0428  80.1186  80.1944  80.2704  80.3464  80.4225  80.4987  80.5750

 M, (1/n)           2.009    2.009    2.009    2.008    2.008    2.008    2.007    2.007
 (dLV/dLP)t      -1.00169 -1.00175 -1.00181 -1.00188 -1.00195 -1.00202 -1.00209 -1.00216
 (dLV/dLT)p        1.0337   1.0348   1.0360   1.0371   1.0383   1.0396   1.0408   1.0421
 Cp, KJ/(KG)(K)   20.9080  21.0027  21.0990  21.1971  21.2970  21.3986  21.5020  21.6071
 GAMMAs            1.2655   1.2647   1.2638   1.2630   1.2621   1.2612   1.2604   1.2595
 SON VEL,M/SEC     3802.0   3807.8   3813.6   3819.4   3825.2   3831.0   3836.8   3842.5

 TRANSPORT PROPERTIES (GASES ONLY)
   CONDUCTIVITY IN UNITS OF MILLIWATTS/(CM)(K)

 VISC,MILLIPOISE  0.42891  0.43018  0.43145  0.43272  0.43400  0.43527  0.43655  0.43784

  WITH EQUILIBRIUM REACTIONS

 Cp, KJ/(KG)(K)   20.9080  21.0027  21.0990  21.1971  21.2970  21.3986  21.5020  21.6071
 CONDUCTIVITY     14.3643  14.5132  14.6649  14.8194  14.9766  15.1368  15.2998  15.4658
 PRANDTL NUMBER    0.6243   0.6225   0.6207   0.6190   0.6172   0.6153   0.6135   0.6117

  WITH FROZEN REACTIONS

 Cp, KJ/(KG)(K)   18.1200  18.1325  18.1450  18.1574  18.1698  18.1821  18.1944  18.2067
 CONDUCTIVITY     11.0427  11.0836  11.1246  11.1657  11.2069  11.2482  11.2895  11.3310
 PRANDTL NUMBER    0.7038   0.7038   0.7037   0.7037   0.7036   0.7036   0.7036   0.7035

 MOLE FRACTIONS

 *H               0.00675  0.00700  0.00725  0.00751  0.00778  0.00806  0.00834  0.00864
 *H2              0.99325  0.99300  0.99275  0.99249  0.99222  0.99194  0.99166  0.99136

  * THERMODYNAMIC PROPERTIES FITTED TO 20000.K

 NOTE. WEIGHT FRACTION OF FUEL IN TOTAL FUELS AND OF OXIDANT IN TOTAL OXIDANTS









               THERMODYNAMIC EQUILIBRIUM PROPERTIES AT ASSIGNED

                           TEMPERATURE AND PRESSURE

 CASE =                

             REACTANT                    WT FRACTION      ENERGY      TEMP
                                          (SEE NOTE)     KJ/KG-MOL      K  
             H2                           1.0000000         0.000      0.000

 O/F=    0.00000  %FUEL=100.000000  R,EQ.RATIO= 0.000000  PHI,EQ.RATIO= 0.000000

 THERMODYNAMIC PROPERTIES

 P, BAR            110.00   120.00   120.00   120.00   120.00   120.00   120.00   120.00
 T, K             2840.00  2700.00  2710.00  2720.00  2730.00  2740.00  2750.00  2760.00
 RHO, KG/CU M    9.3488-1 1.0748 0 1.0707 0 1.0667 0 1.0626 0 1.0586 0 1.0547 0 1.0507 0
 H, KJ/KG         42109.3  39140.8  39343.9  39547.9  39752.7  39958.4  40165.0  40372.4
 U, KJ/KG         30343.1  27975.7  28136.3  28297.8  28460.1  28623.2  28787.1  28951.8
 G, KJ/KG       -186940.7-174752.5-175545.0-176338.3-177132.4-177927.2-178722.8-179519.1
 S, KJ/(KG)(K)    80.6514  79.2197  79.2948  79.3699  79.4451  79.5203  79.5955  79.6708

 M, (1/n)           2.007    2.011    2.010    2.010    2.010    2.010    2.010    2.009
 (dLV/dLP)t      -1.00223 -1.00130 -1.00135 -1.00140 -1.00145 -1.00150 -1.00156 -1.00162
 (dLV/dLT)p        1.0434   1.0264   1.0274   1.0283   1.0293   1.0302   1.0313   1.0323
 Cp, KJ/(KG)(K)   21.7141  20.2750  20.3568  20.4401  20.5250  20.6114  20.6994  20.7889
 GAMMAs            1.2586   1.2716   1.2708   1.2699   1.2691   1.2683   1.2674   1.2666
 SON VEL,M/SEC     3848.3   3768.0   3773.9   3779.8   3785.7   3791.6   3797.5   3803.3

 TRANSPORT PROPERTIES (GASES ONLY)
   CONDUCTIVITY IN UNITS OF MILLIWATTS/(CM)(K)

 VISC,MILLIPOISE  0.43912  0.42128  0.42253  0.42379  0.42505  0.42631  0.42757  0.42884

  WITH EQUILIBRIUM REACTIONS

 Cp, KJ/(KG)(K)   21.7141  20.2750  20.3568  20.4401  20.5250  20.6114  20.6994  20.7889
 CONDUCTIVITY     15.6347  13.4079  13.5372  13.6690  13.8032  13.9398  14.0790  14.2207
 PRANDTL NUMBER    0.6099   0.6370   0.6354   0.6337   0.6320   0.6303   0.6286   0.6269

  WITH FROZEN REACTIONS

 Cp, KJ/(KG)(K)   18.2189  18.0438  18.0565  18.0692  18.0819  18.0945  18.1071  18.1197
 CONDUCTIVITY     11.3726  10.7970  10.8373  10.8777  10.9181  10.9587  10.9993  11.0400
 PRANDTL NUMBER    0.7035   0.7040   0.7040   0.7040   0.7039   0.7039   0.7039   0.7038

 MOLE FRACTIONS

 *H               0.00894  0.00518  0.00538  0.00558  0.00580  0.00601  0.00624  0.00647
 *H2              0.99106  0.99482  0.99462  0.99442  0.99420  0.99399  0.99376  0.99353

  * THERMODYNAMIC PROPERTIES FITTED TO 20000.K

 NOTE. WEIGHT FRACTION OF FUEL IN TOTAL FUELS AND OF OXIDANT IN TOTAL OXIDANTS









               THERMODYNAMIC EQUILIBRIUM PROPERTIES AT ASSIGNED

                           TEMPERATURE AND PRESSURE

 CASE =                

             REACTANT                    WT FRACTION      ENERGY      TEMP
                                          (SEE NOTE)     KJ/KG-MOL      K  
             H2                           1.0000000         0.000      0.000

 O/F=    0.00000  %FUEL=100.000000  R,EQ.RATIO= 0.000000  PHI,EQ.RATIO= 0.000000

 THERMODYNAMIC PROPERTIES

 P, BAR            120.00   120.00   120.00   120.00   120.00   120.00   120.00   120.00
 T, K             2770.00  2780.00  2790.00  2800.00  2810.00  2820.00  2830.00  2840.00
 RHO, KG/CU M    1.0468 0 1.0429 0 1.0391 0 1.0352 0 1.0314 0 1.0276 0 1.0238 0 1.0201 0
 H, KJ/KG         40580.7  40790.0  41000.2  41211.4  41423.5  41636.6  41850.7  42065.8
 U, KJ/KG         29117.4  29283.9  29451.3  29619.5  29788.7  29958.8  30129.9  30301.9
 G, KJ/KG       -180316.2-181114.1-181912.7-182712.0-183512.1-184313.0-185114.6-185917.0
 S, KJ/(KG)(K)    79.7462  79.8216  79.8971  79.9726  80.0482  80.1240  80.1997  80.2756

 M, (1/n)           2.009    2.009    2.009    2.008    2.008    2.008    2.008    2.007
 (dLV/dLP)t      -1.00168 -1.00174 -1.00180 -1.00186 -1.00193 -1.00200 -1.00207 -1.00214
 (dLV/dLT)p        1.0334   1.0344   1.0356   1.0367   1.0379   1.0391   1.0403   1.0416
 Cp, KJ/(KG)(K)   20.8801  20.9729  21.0673  21.1634  21.2612  21.3607  21.4619  21.5649
 GAMMAs            1.2658   1.2649   1.2641   1.2632   1.2624   1.2615   1.2607   1.2598
 SON VEL,M/SEC     3809.2   3815.0   3820.8   3826.6   3832.4   3838.2   3844.0   3849.8

 TRANSPORT PROPERTIES (GASES ONLY)
   CONDUCTIVITY IN UNITS OF MILLIWATTS/(CM)(K)

 VISC,MILLIPOISE  0.43010  0.43137  0.43264  0.43391  0.43519  0.43647  0.43774  0.43902

  WITH EQUILIBRIUM REACTIONS

 Cp, KJ/(KG)(K)   20.8801  20.9729  21.0673  21.1634  21.2612  21.3607  21.4619  21.5649
 CONDUCTIVITY     14.3649  14.5118  14.6614  14.8136  14.9686  15.1264  15.2870  15.4505
 PRANDTL NUMBER    0.6252   0.6234   0.6217   0.6199   0.6181   0.6164   0.6146   0.6128

  WITH FROZEN REACTIONS

 Cp, KJ/(KG)(K)   18.1321  18.1446  18.1570  18.1694  18.1817  18.1940  18.2063  18.2185
 CONDUCTIVITY     11.0809  11.1217  11.1627  11.2038  11.2449  11.2862  11.3275  11.3689
 PRANDTL NUMBER    0.7038   0.7038   0.7037   0.7037   0.7036   0.7036   0.7036   0.7035

 MOLE FRACTIONS

 *H               0.00670  0.00695  0.00720  0.00745  0.00772  0.00799  0.00827  0.00856
 *H2              0.99330  0.99305  0.99280  0.99255  0.99228  0.99201  0.99173  0.99144

  * THERMODYNAMIC PROPERTIES FITTED TO 20000.K

 NOTE. WEIGHT FRACTION OF FUEL IN TOTAL FUELS AND OF OXIDANT IN TOTAL OXIDANTS









               THERMODYNAMIC EQUILIBRIUM PROPERTIES AT ASSIGNED

                           TEMPERATURE AND PRESSURE

 CASE =                

             REACTANT                    WT FRACTION      ENERGY      TEMP
                                          (SEE NOTE)     KJ/KG-MOL      K  
             H2                           1.0000000         0.000      0.000

 O/F=    0.00000  %FUEL=100.000000  R,EQ.RATIO= 0.000000  PHI,EQ.RATIO= 0.000000

 THERMODYNAMIC PROPERTIES

 P, BAR            132.00   132.00   132.00   132.00   132.00   132.00   132.00   132.00
 T, K             2700.00  2710.00  2720.00  2730.00  2740.00  2750.00  2760.00  2770.00
 RHO, KG/CU M    1.1824 0 1.1779 0 1.1735 0 1.1691 0 1.1647 0 1.1603 0 1.1560 0 1.1517 0
 H, KJ/KG         39113.3  39315.4  39518.3  39722.0  39926.5  40131.9  40338.1  40545.1
 U, KJ/KG         27949.5  28109.2  28269.7  28430.9  28592.9  28755.6  28919.2  29083.6
 G, KJ/KG       -173688.4-174476.9-175266.1-176056.2-176846.9-177638.5-178430.7-179223.7
 S, KJ/(KG)(K)    78.8154  78.8901  78.9649  79.0396  79.1144  79.1892  79.2641  79.3389

 M, (1/n)           2.011    2.011    2.011    2.010    2.010    2.010    2.010    2.009
 (dLV/dLP)t      -1.00124 -1.00128 -1.00133 -1.00138 -1.00143 -1.00149 -1.00154 -1.00160
 (dLV/dLT)p        1.0252   1.0261   1.0270   1.0279   1.0288   1.0298   1.0308   1.0318
 Cp, KJ/(KG)(K)   20.1708  20.2494  20.3295  20.4110  20.4939  20.5784  20.6643  20.7518
 GAMMAs            1.2726   1.2718   1.2710   1.2702   1.2694   1.2686   1.2677   1.2669
 SON VEL,M/SEC     3769.2   3775.2   3781.1   3787.1   3793.0   3798.9   3804.7   3810.6

 TRANSPORT PROPERTIES (GASES ONLY)
   CONDUCTIVITY IN UNITS OF MILLIWATTS/(CM)(K)

 VISC,MILLIPOISE  0.42122  0.42247  0.42373  0.42498  0.42624  0.42750  0.42876  0.43003

  WITH EQUILIBRIUM REACTIONS

 Cp, KJ/(KG)(K)   20.1708  20.2494  20.3295  20.4110  20.4939  20.5784  20.6643  20.7518
 CONDUCTIVITY     13.2845  13.4096  13.5370  13.6668  13.7989  13.9334  14.0703  14.2097
 PRANDTL NUMBER    0.6396   0.6380   0.6363   0.6347   0.6331   0.6314   0.6297   0.6280

  WITH FROZEN REACTIONS

 Cp, KJ/(KG)(K)   18.0435  18.0562  18.0689  18.0816  18.0942  18.1067  18.1193  18.1318
 CONDUCTIVITY     10.7947  10.8349  10.8752  10.9156  10.9561  10.9966  11.0372  11.0779
 PRANDTL NUMBER    0.7041   0.7040   0.7040   0.7040   0.7039   0.7039   0.7039   0.7038

 MOLE FRACTIONS

 *H               0.00494  0.00513  0.00533  0.00553  0.00573  0.00595  0.00617  0.00639
 *H2              0.99506  0.99487  0.99467  0.99447  0.99427  0.99405  0.99383  0.99361

  * THERMODYNAMIC PROPERTIES FITTED TO 20000.K

 NOTE. WEIGHT FRACTION OF FUEL IN TOTAL FUELS AND OF OXIDANT IN TOTAL OXIDANTS









               THERMODYNAMIC EQUILIBRIUM PROPERTIES AT ASSIGNED

                           TEMPERATURE AND PRESSURE

 CASE =                

             REACTANT                    WT FRACTION      ENERGY      TEMP
                                          (SEE NOTE)     KJ/KG-MOL      K  
             H2                           1.0000000         0.000      0.000

 O/F=    0.00000  %FUEL=100.000000  R,EQ.RATIO= 0.000000  PHI,EQ.RATIO= 0.000000

 THERMODYNAMIC PROPERTIES

 P, BAR            132.00   132.00   132.00   132.00   132.00   132.00   132.00   148.00
 T, K             2780.00  2790.00  2800.00  2810.00  2820.00  2830.00  2840.00  2700.00
 RHO, KG/CU M    1.1474 0 1.1432 0 1.1389 0 1.1347 0 1.1306 0 1.1264 0 1.1223 0 1.3259 0
 H, KJ/KG         40753.1  40962.0  41171.7  41382.5  41594.1  41806.7  42020.3  39082.0
 U, KJ/KG         29248.9  29415.0  29581.9  29749.8  29918.5  30088.1  30258.7  27919.8
 G, KJ/KG       -180017.5-180812.0-181607.3-182403.3-183200.1-183997.6-184795.8-172411.2
 S, KJ/(KG)(K)    79.4139  79.4889  79.5639  79.6391  79.7142  79.7895  79.8648  78.3308

 M, (1/n)           2.009    2.009    2.009    2.008    2.008    2.008    2.008    2.011
 (dLV/dLP)t      -1.00166 -1.00172 -1.00178 -1.00184 -1.00191 -1.00197 -1.00204 -1.00117
 (dLV/dLT)p        1.0328   1.0339   1.0350   1.0361   1.0373   1.0384   1.0396   1.0238
 Cp, KJ/(KG)(K)   20.8409  20.9315  21.0237  21.1175  21.2129  21.3099  21.4086  20.0522
 GAMMAs            1.2661   1.2653   1.2644   1.2636   1.2628   1.2619   1.2611   1.2738
 SON VEL,M/SEC     3816.5   3822.3   3828.1   3833.9   3839.7   3845.5   3851.3   3770.7

 TRANSPORT PROPERTIES (GASES ONLY)
   CONDUCTIVITY IN UNITS OF MILLIWATTS/(CM)(K)

 VISC,MILLIPOISE  0.43129  0.43256  0.43383  0.43510  0.43637  0.43765  0.43892  0.42115

  WITH EQUILIBRIUM REACTIONS

 Cp, KJ/(KG)(K)   20.8409  20.9315  21.0237  21.1175  21.2129  21.3099  21.4086  20.0522
 CONDUCTIVITY     14.3515  14.4960  14.6430  14.7926  14.9449  15.0998  15.2575  13.1438
 PRANDTL NUMBER    0.6263   0.6246   0.6229   0.6211   0.6194   0.6176   0.6159   0.6425

  WITH FROZEN REACTIONS

 Cp, KJ/(KG)(K)   18.1442  18.1566  18.1690  18.1813  18.1936  18.2058  18.2180  18.0431
 CONDUCTIVITY     11.1187  11.1596  11.2005  11.2415  11.2826  11.3239  11.3652  10.7922
 PRANDTL NUMBER    0.7038   0.7038   0.7037   0.7037   0.7037   0.7036   0.7036   0.7041

 MOLE FRACTIONS

 *H               0.00662  0.00686  0.00711  0.00736  0.00762  0.00789  0.00816  0.00467
 *H2              0.99338  0.99314  0.99289  0.99264  0.99238  0.99211  0.99184  0.99533

  * THERMODYNAMIC PROPERTIES FITTED TO 20000.K

 NOTE. WEIGHT FRACTION OF FUEL IN TOTAL FUELS AND OF OXIDANT IN TOTAL OXIDANTS









               THERMODYNAMIC EQUILIBRIUM PROPERTIES AT ASSIGNED

                           TEMPERATURE AND PRESSURE

 CASE =                

             REACTANT                    WT FRACTION      ENERGY      TEMP
                                          (SEE NOTE)     KJ/KG-MOL      K  
             H2                           1.0000000         0.000      0.000

 O/F=    0.00000  %FUEL=100.000000  R,EQ.RATIO= 0.000000  PHI,EQ.RATIO= 0.000000

 THERMODYNAMIC PROPERTIES

 P, BAR            148.00   148.00   148.00   148.00   148.00   148.00   148.00   148.00
 T, K             2710.00  2720.00  2730.00  2740.00  2750.00  2760.00  2770.00  2780.00
 RHO, KG/CU M    1.3209 0 1.3159 0 1.3110 0 1.3061 0 1.3012 0 1.2963 0 1.2915 0 1.2867 0
 H, KJ/KG         39282.9  39484.5  39686.9  39890.2  40094.2  40299.0  40504.6  40711.1
 U, KJ/KG         28078.3  28237.6  28397.6  28558.3  28719.8  28882.1  29045.1  29209.0
 G, KJ/KG       -173194.9-173979.3-174764.4-175550.4-176337.0-177124.4-177912.5-178701.4
 S, KJ/(KG)(K)    78.4051  78.4793  78.5536  78.6279  78.7022  78.7766  78.8510  78.9254

 M, (1/n)           2.011    2.011    2.011    2.010    2.010    2.010    2.010    2.010
 (dLV/dLP)t      -1.00121 -1.00126 -1.00130 -1.00135 -1.00140 -1.00146 -1.00151 -1.00156
 (dLV/dLT)p        1.0246   1.0255   1.0263   1.0272   1.0281   1.0291   1.0300   1.0310
 Cp, KJ/(KG)(K)   20.1271  20.2034  20.2810  20.3601  20.4405  20.5224  20.6057  20.6905
 GAMMAs            1.2730   1.2722   1.2714   1.2706   1.2698   1.2690   1.2682   1.2674
 SON VEL,M/SEC     3776.7   3782.7   3788.6   3794.5   3800.5   3806.4   3812.3   3818.1

 TRANSPORT PROPERTIES (GASES ONLY)
   CONDUCTIVITY IN UNITS OF MILLIWATTS/(CM)(K)

 VISC,MILLIPOISE  0.42240  0.42366  0.42491  0.42616  0.42742  0.42868  0.42994  0.43120

  WITH EQUILIBRIUM REACTIONS

 Cp, KJ/(KG)(K)   20.1271  20.2034  20.2810  20.3601  20.4405  20.5224  20.6057  20.6905
 CONDUCTIVITY     13.2642  13.3867  13.5114  13.6383  13.7675  13.8989  14.0327  14.1689
 PRANDTL NUMBER    0.6410   0.6394   0.6378   0.6362   0.6346   0.6330   0.6313   0.6297

  WITH FROZEN REACTIONS

 Cp, KJ/(KG)(K)   18.0558  18.0685  18.0812  18.0938  18.1063  18.1188  18.1313  18.1437
 CONDUCTIVITY     10.8323  10.8725  10.9128  10.9531  10.9935  11.0340  11.0746  11.1152
 PRANDTL NUMBER    0.7041   0.7041   0.7040   0.7040   0.7040   0.7039   0.7039   0.7039

 MOLE FRACTIONS

 *H               0.00485  0.00503  0.00522  0.00542  0.00562  0.00582  0.00604  0.00626
 *H2              0.99515  0.99497  0.99478  0.99458  0.99438  0.99418  0.99396  0.99374

  * THERMODYNAMIC PROPERTIES FITTED TO 20000.K

 NOTE. WEIGHT FRACTION OF FUEL IN TOTAL FUELS AND OF OXIDANT IN TOTAL OXIDANTS









               THERMODYNAMIC EQUILIBRIUM PROPERTIES AT ASSIGNED

                           TEMPERATURE AND PRESSURE

 CASE =                

             REACTANT                    WT FRACTION      ENERGY      TEMP
                                          (SEE NOTE)     KJ/KG-MOL      K  
             H2                           1.0000000         0.000      0.000

 O/F=    0.00000  %FUEL=100.000000  R,EQ.RATIO= 0.000000  PHI,EQ.RATIO= 0.000000

 THERMODYNAMIC PROPERTIES

 P, BAR            148.00   148.00   148.00   148.00   148.00   148.00   165.00   165.00
 T, K             2790.00  2800.00  2810.00  2820.00  2830.00  2840.00  2700.00  2710.00
 RHO, KG/CU M    1.2820 0 1.2772 0 1.2725 0 1.2679 0 1.2632 0 1.2586 0 1.4784 0 1.4728 0
 H, KJ/KG         40918.4  41126.6  41335.7  41545.7  41756.6  41968.4  39053.9  39253.7
 U, KJ/KG         29373.6  29539.1  29705.4  29872.6  30040.6  30209.5  27893.0  28050.5
 G, KJ/KG       -179491.0-180281.4-181072.5-181864.4-182657.0-183450.4-171197.6-171976.6
 S, KJ/(KG)(K)    78.9998  79.0743  79.1488  79.2234  79.2981  79.3728  77.8709  77.9448

 M, (1/n)           2.009    2.009    2.009    2.009    2.008    2.008    2.011    2.011
 (dLV/dLP)t      -1.00162 -1.00168 -1.00174 -1.00180 -1.00186 -1.00193 -1.00111 -1.00115
 (dLV/dLT)p        1.0320   1.0331   1.0341   1.0352   1.0363   1.0375   1.0226   1.0233
 Cp, KJ/(KG)(K)   20.7767  20.8645  20.9537  21.0445  21.1368  21.2307  19.9456  20.0172
 GAMMAs            1.2666   1.2658   1.2650   1.2642   1.2634   1.2626   1.2749   1.2741
 SON VEL,M/SEC     3824.0   3829.9   3835.7   3841.5   3847.3   3853.1   3772.1   3778.1

 TRANSPORT PROPERTIES (GASES ONLY)
   CONDUCTIVITY IN UNITS OF MILLIWATTS/(CM)(K)

 VISC,MILLIPOISE  0.43246  0.43373  0.43500  0.43626  0.43754  0.43881  0.42109  0.42234

  WITH EQUILIBRIUM REACTIONS

 Cp, KJ/(KG)(K)   20.7767  20.8645  20.9537  21.0445  21.1368  21.2307  19.9456  20.0172
 CONDUCTIVITY     14.3075  14.4485  14.5920  14.7380  14.8865  15.0376  13.0174  13.1334
 PRANDTL NUMBER    0.6280   0.6263   0.6246   0.6229   0.6212   0.6195   0.6452   0.6437

  WITH FROZEN REACTIONS

 Cp, KJ/(KG)(K)   18.1561  18.1685  18.1808  18.1930  18.2053  18.2174  18.0428  18.0555
 CONDUCTIVITY     11.1560  11.1968  11.2376  11.2786  11.3197  11.3608  10.7899  10.8299
 PRANDTL NUMBER    0.7038   0.7038   0.7038   0.7037   0.7037   0.7036   0.7041   0.7041

 MOLE FRACTIONS

 *H               0.00648  0.00671  0.00695  0.00720  0.00745  0.00771  0.00442  0.00459
 *H2              0.99352  0.99329  0.99305  0.99280  0.99255  0.99229  0.99558  0.99541

  * THERMODYNAMIC PROPERTIES FITTED TO 20000.K

 NOTE. WEIGHT FRACTION OF FUEL IN TOTAL FUELS AND OF OXIDANT IN TOTAL OXIDANTS









               THERMODYNAMIC EQUILIBRIUM PROPERTIES AT ASSIGNED

                           TEMPERATURE AND PRESSURE

 CASE =                

             REACTANT                    WT FRACTION      ENERGY      TEMP
                                          (SEE NOTE)     KJ/KG-MOL      K  
             H2                           1.0000000         0.000      0.000

 O/F=    0.00000  %FUEL=100.000000  R,EQ.RATIO= 0.000000  PHI,EQ.RATIO= 0.000000

 THERMODYNAMIC PROPERTIES

 P, BAR            165.00   165.00   165.00   165.00   165.00   165.00   165.00   165.00
 T, K             2720.00  2730.00  2740.00  2750.00  2760.00  2770.00  2780.00  2790.00
 RHO, KG/CU M    1.4673 0 1.4618 0 1.4563 0 1.4508 0 1.4455 0 1.4401 0 1.4348 0 1.4295 0
 H, KJ/KG         39454.2  39655.5  39857.5  40060.3  40263.8  40468.2  40673.3  40879.3
 U, KJ/KG         28208.8  28367.7  28527.3  28687.6  28848.7  29010.5  29173.1  29336.5
 G, KJ/KG       -172756.4-173537.0-174318.3-175100.3-175883.1-176666.6-177450.9-178235.9
 S, KJ/(KG)(K)    78.0186  78.0925  78.1663  78.2402  78.3141  78.3880  78.4619  78.5359

 M, (1/n)           2.011    2.011    2.011    2.011    2.010    2.010    2.010    2.010
 (dLV/dLP)t      -1.00119 -1.00124 -1.00128 -1.00133 -1.00138 -1.00143 -1.00148 -1.00154
 (dLV/dLT)p        1.0241   1.0250   1.0258   1.0267   1.0276   1.0285   1.0294   1.0303
 Cp, KJ/(KG)(K)   20.0901  20.1643  20.2398  20.3166  20.3948  20.4744  20.5553  20.6376
 GAMMAs            1.2733   1.2726   1.2718   1.2710   1.2702   1.2695   1.2687   1.2679
 SON VEL,M/SEC     3784.1   3790.0   3796.0   3801.9   3807.9   3813.8   3819.7   3825.6

 TRANSPORT PROPERTIES (GASES ONLY)
   CONDUCTIVITY IN UNITS OF MILLIWATTS/(CM)(K)

 VISC,MILLIPOISE  0.42359  0.42484  0.42609  0.42735  0.42860  0.42986  0.43112  0.43238

  WITH EQUILIBRIUM REACTIONS

 Cp, KJ/(KG)(K)   20.0901  20.1643  20.2398  20.3166  20.3948  20.4744  20.5553  20.6376
 CONDUCTIVITY     13.2515  13.3716  13.4939  13.6183  13.7449  13.8736  14.0047  14.1380
 PRANDTL NUMBER    0.6422   0.6407   0.6391   0.6375   0.6360   0.6344   0.6328   0.6312

  WITH FROZEN REACTIONS

 Cp, KJ/(KG)(K)   18.0682  18.0808  18.0934  18.1060  18.1185  18.1309  18.1433  18.1557
 CONDUCTIVITY     10.8700  10.9102  10.9504  10.9907  11.0311  11.0716  11.1121  11.1527
 PRANDTL NUMBER    0.7041   0.7041   0.7040   0.7040   0.7040   0.7039   0.7039   0.7039

 MOLE FRACTIONS

 *H               0.00476  0.00494  0.00513  0.00532  0.00552  0.00572  0.00593  0.00614
 *H2              0.99524  0.99506  0.99487  0.99468  0.99448  0.99428  0.99407  0.99386

  * THERMODYNAMIC PROPERTIES FITTED TO 20000.K

 NOTE. WEIGHT FRACTION OF FUEL IN TOTAL FUELS AND OF OXIDANT IN TOTAL OXIDANTS









               THERMODYNAMIC EQUILIBRIUM PROPERTIES AT ASSIGNED

                           TEMPERATURE AND PRESSURE

 CASE =                

             REACTANT                    WT FRACTION      ENERGY      TEMP
                                          (SEE NOTE)     KJ/KG-MOL      K  
             H2                           1.0000000         0.000      0.000

 O/F=    0.00000  %FUEL=100.000000  R,EQ.RATIO= 0.000000  PHI,EQ.RATIO= 0.000000

 THERMODYNAMIC PROPERTIES

 P, BAR            165.00   165.00   165.00   165.00   165.00   180.00   180.00   180.00
 T, K             2800.00  2810.00  2820.00  2830.00  2840.00  2700.00  2710.00  2720.00
 RHO, KG/CU M    1.4242 0 1.4190 0 1.4138 0 1.4086 0 1.4035 0 1.6129 0 1.6069 0 1.6008 0
 H, KJ/KG         41086.1  41293.7  41502.2  41711.6  41921.8  39032.4  39231.4  39431.1
 U, KJ/KG         29500.6  29665.6  29831.3  29997.9  30165.3  27872.6  28029.4  28186.8
 G, KJ/KG       -179021.6-179808.1-180595.3-181383.2-182171.9-170226.5-171001.9-171778.0
 S, KJ/(KG)(K)    78.6099  78.6839  78.7580  78.8321  78.9062  77.5033  77.5769  77.6504

 M, (1/n)           2.009    2.009    2.009    2.009    2.009    2.012    2.011    2.011
 (dLV/dLP)t      -1.00159 -1.00165 -1.00170 -1.00176 -1.00183 -1.00106 -1.00110 -1.00114
 (dLV/dLT)p        1.0313   1.0323   1.0334   1.0344   1.0355   1.0216   1.0223   1.0231
 Cp, KJ/(KG)(K)   20.7214  20.8066  20.8932  20.9812  21.0708  19.8643  19.9334  20.0038
 GAMMAs            1.2671   1.2663   1.2655   1.2647   1.2639   1.2757   1.2749   1.2742
 SON VEL,M/SEC     3831.4   3837.3   3843.1   3849.0   3854.8   3773.1   3779.1   3785.1

 TRANSPORT PROPERTIES (GASES ONLY)
   CONDUCTIVITY IN UNITS OF MILLIWATTS/(CM)(K)

 VISC,MILLIPOISE  0.43364  0.43490  0.43617  0.43744  0.43870  0.42105  0.42229  0.42354

  WITH EQUILIBRIUM REACTIONS

 Cp, KJ/(KG)(K)   20.7214  20.8066  20.8932  20.9812  21.0708  19.8643  19.9334  20.0038
 CONDUCTIVITY     14.2736  14.4116  14.5519  14.6947  14.8399  12.9210  13.0337  13.1484
 PRANDTL NUMBER    0.6295   0.6279   0.6262   0.6246   0.6229   0.6473   0.6458   0.6444

  WITH FROZEN REACTIONS

 Cp, KJ/(KG)(K)   18.1680  18.1803  18.1926  18.2048  18.2169  18.0425  18.0553  18.0679
 CONDUCTIVITY     11.1934  11.2342  11.2750  11.3159  11.3569  10.7882  10.8281  10.8681
 PRANDTL NUMBER    0.7038   0.7038   0.7038   0.7037   0.7037   0.7042   0.7042   0.7041

 MOLE FRACTIONS

 *H               0.00636  0.00659  0.00682  0.00706  0.00730  0.00423  0.00440  0.00456
 *H2              0.99364  0.99341  0.99318  0.99294  0.99270  0.99577  0.99560  0.99544

  * THERMODYNAMIC PROPERTIES FITTED TO 20000.K

 NOTE. WEIGHT FRACTION OF FUEL IN TOTAL FUELS AND OF OXIDANT IN TOTAL OXIDANTS









               THERMODYNAMIC EQUILIBRIUM PROPERTIES AT ASSIGNED

                           TEMPERATURE AND PRESSURE

 CASE =                

             REACTANT                    WT FRACTION      ENERGY      TEMP
                                          (SEE NOTE)     KJ/KG-MOL      K  
             H2                           1.0000000         0.000      0.000

 O/F=    0.00000  %FUEL=100.000000  R,EQ.RATIO= 0.000000  PHI,EQ.RATIO= 0.000000

 THERMODYNAMIC PROPERTIES

 P, BAR            180.00   180.00   180.00   180.00   180.00   180.00   180.00   180.00
 T, K             2730.00  2740.00  2750.00  2760.00  2770.00  2780.00  2790.00  2800.00
 RHO, KG/CU M    1.5948 0 1.5888 0 1.5829 0 1.5770 0 1.5712 0 1.5654 0 1.5596 0 1.5539 0
 H, KJ/KG         39631.5  39832.6  40034.5  40237.0  40440.4  40644.5  40849.5  41055.2
 U, KJ/KG         28344.9  28503.6  28663.1  28823.3  28984.2  29145.8  29308.2  29471.3
 G, KJ/KG       -172554.9-173332.5-174110.8-174889.9-175669.7-176450.3-177231.6-178013.6
 S, KJ/(KG)(K)    77.7239  77.7975  77.8710  77.9446  78.0181  78.0917  78.1652  78.2388

 M, (1/n)           2.011    2.011    2.011    2.011    2.010    2.010    2.010    2.010
 (dLV/dLP)t      -1.00118 -1.00123 -1.00127 -1.00132 -1.00137 -1.00142 -1.00147 -1.00152
 (dLV/dLT)p        1.0239   1.0247   1.0255   1.0264   1.0273   1.0281   1.0291   1.0300
 Cp, KJ/(KG)(K)   20.0753  20.1482  20.2222  20.2976  20.3743  20.4523  20.5317  20.6124
 GAMMAs            1.2734   1.2727   1.2719   1.2711   1.2704   1.2696   1.2689   1.2681
 SON VEL,M/SEC     3791.1   3797.1   3803.1   3809.0   3815.0   3820.9   3826.8   3832.7

 TRANSPORT PROPERTIES (GASES ONLY)
   CONDUCTIVITY IN UNITS OF MILLIWATTS/(CM)(K)

 VISC,MILLIPOISE  0.42479  0.42604  0.42729  0.42855  0.42980  0.43106  0.43231  0.43357

  WITH EQUILIBRIUM REACTIONS

 Cp, KJ/(KG)(K)   20.0753  20.1482  20.2222  20.2976  20.3743  20.4523  20.5317  20.6124
 CONDUCTIVITY     13.2651  13.3838  13.5046  13.6274  13.7524  13.8795  14.0088  14.1403
 PRANDTL NUMBER    0.6429   0.6414   0.6398   0.6383   0.6368   0.6352   0.6336   0.6320

  WITH FROZEN REACTIONS

 Cp, KJ/(KG)(K)   18.0806  18.0931  18.1057  18.1182  18.1306  18.1430  18.1554  18.1677
 CONDUCTIVITY     10.9082  10.9484  10.9886  11.0289  11.0693  11.1097  11.1502  11.1908
 PRANDTL NUMBER    0.7041   0.7041   0.7040   0.7040   0.7040   0.7039   0.7039   0.7039

 MOLE FRACTIONS

 *H               0.00473  0.00491  0.00509  0.00528  0.00548  0.00567  0.00588  0.00609
 *H2              0.99527  0.99509  0.99491  0.99472  0.99452  0.99433  0.99412  0.99391

  * THERMODYNAMIC PROPERTIES FITTED TO 20000.K

 NOTE. WEIGHT FRACTION OF FUEL IN TOTAL FUELS AND OF OXIDANT IN TOTAL OXIDANTS









               THERMODYNAMIC EQUILIBRIUM PROPERTIES AT ASSIGNED

                           TEMPERATURE AND PRESSURE

 CASE =                

             REACTANT                    WT FRACTION      ENERGY      TEMP
                                          (SEE NOTE)     KJ/KG-MOL      K  
             H2                           1.0000000         0.000      0.000

 O/F=    0.00000  %FUEL=100.000000  R,EQ.RATIO= 0.000000  PHI,EQ.RATIO= 0.000000

 THERMODYNAMIC PROPERTIES

 P, BAR            180.00   180.00   180.00   180.00   200.00   200.00   200.00   200.00
 T, K             2810.00  2820.00  2830.00  2840.00  2700.00  2710.00  2720.00  2730.00
 RHO, KG/CU M    1.5482 0 1.5425 0 1.5369 0 1.5313 0 1.7923 0 1.7856 0 1.7789 0 1.7722 0
 H, KJ/KG         41261.7  41469.1  41677.3  41886.3  39007.7  39205.7  39404.4  39603.8
 U, KJ/KG         29635.2  29799.9  29965.3  30131.6  27849.1  28004.9  28161.4  28318.6
 G, KJ/KG       -178796.3-179579.8-180364.1-181149.0-169050.8-169821.7-170593.4-171365.8
 S, KJ/(KG)(K)    78.3125  78.3861  78.4598  78.5336  77.0587  77.1319  77.2051  77.2782

 M, (1/n)           2.010    2.009    2.009    2.009    2.012    2.012    2.012    2.011
 (dLV/dLP)t      -1.00158 -1.00163 -1.00169 -1.00175 -1.00100 -1.00104 -1.00108 -1.00112
 (dLV/dLT)p        1.0310   1.0319   1.0329   1.0340   1.0205   1.0212   1.0219   1.0227
 Cp, KJ/(KG)(K)   20.6944  20.7778  20.8627  20.9489  19.7705  19.8367  19.9041  19.9727
 GAMMAs            1.2673   1.2665   1.2658   1.2650   1.2766   1.2759   1.2752   1.2744
 SON VEL,M/SEC     3838.5   3844.4   3850.3   3856.1   3774.3   3780.4   3786.4   3792.4

 TRANSPORT PROPERTIES (GASES ONLY)
   CONDUCTIVITY IN UNITS OF MILLIWATTS/(CM)(K)

 VISC,MILLIPOISE  0.43483  0.43610  0.43736  0.43863  0.42099  0.42224  0.42348  0.42473

  WITH EQUILIBRIUM REACTIONS

 Cp, KJ/(KG)(K)   20.6944  20.7778  20.8627  20.9489  19.7705  19.8367  19.9041  19.9727
 CONDUCTIVITY     14.2741  14.4101  14.5485  14.6892  12.8098  12.9187  13.0295  13.1422
 PRANDTL NUMBER    0.6304   0.6288   0.6272   0.6255   0.6498   0.6484   0.6469   0.6455

  WITH FROZEN REACTIONS

 Cp, KJ/(KG)(K)   18.1800  18.1922  18.2044  18.2166  18.0423  18.0550  18.0676  18.0802
 CONDUCTIVITY     11.2315  11.2722  11.3131  11.3540  10.7862  10.8260  10.8660  10.9060
 PRANDTL NUMBER    0.7038   0.7038   0.7038   0.7037   0.7042   0.7042   0.7042   0.7041

 MOLE FRACTIONS

 *H               0.00631  0.00653  0.00676  0.00699  0.00402  0.00417  0.00433  0.00449
 *H2              0.99369  0.99347  0.99324  0.99301  0.99598  0.99583  0.99567  0.99551

  * THERMODYNAMIC PROPERTIES FITTED TO 20000.K

 NOTE. WEIGHT FRACTION OF FUEL IN TOTAL FUELS AND OF OXIDANT IN TOTAL OXIDANTS









               THERMODYNAMIC EQUILIBRIUM PROPERTIES AT ASSIGNED

                           TEMPERATURE AND PRESSURE

 CASE =                

             REACTANT                    WT FRACTION      ENERGY      TEMP
                                          (SEE NOTE)     KJ/KG-MOL      K  
             H2                           1.0000000         0.000      0.000

 O/F=    0.00000  %FUEL=100.000000  R,EQ.RATIO= 0.000000  PHI,EQ.RATIO= 0.000000

 THERMODYNAMIC PROPERTIES

 P, BAR            200.00   200.00   200.00   200.00   200.00   200.00   200.00   200.00
 T, K             2740.00  2750.00  2760.00  2770.00  2780.00  2790.00  2800.00  2810.00
 RHO, KG/CU M    1.7656 0 1.7590 0 1.7525 0 1.7460 0 1.7396 0 1.7332 0 1.7268 0 1.7205 0
 H, KJ/KG         39803.9  40004.7  40206.1  40408.4  40611.3  40815.0  41019.5  41224.8
 U, KJ/KG         28476.3  28634.8  28793.9  28953.7  29114.2  29275.5  29437.4  29600.1
 G, KJ/KG       -172138.9-172912.8-173687.4-174462.8-175238.9-176015.7-176793.2-177571.5
 S, KJ/(KG)(K)    77.3514  77.4245  77.4977  77.5708  77.6439  77.7171  77.7903  77.8634

 M, (1/n)           2.011    2.011    2.011    2.011    2.010    2.010    2.010    2.010
 (dLV/dLP)t      -1.00117 -1.00121 -1.00125 -1.00130 -1.00135 -1.00139 -1.00144 -1.00150
 (dLV/dLT)p        1.0234   1.0242   1.0250   1.0259   1.0267   1.0276   1.0285   1.0294
 Cp, KJ/(KG)(K)   20.0424  20.1133  20.1855  20.2588  20.3335  20.4093  20.4865  20.5650
 GAMMAs            1.2737   1.2730   1.2722   1.2715   1.2707   1.2700   1.2692   1.2685
 SON VEL,M/SEC     3798.4   3804.4   3810.4   3816.3   3822.3   3828.2   3834.1   3840.0

 TRANSPORT PROPERTIES (GASES ONLY)
   CONDUCTIVITY IN UNITS OF MILLIWATTS/(CM)(K)

 VISC,MILLIPOISE  0.42598  0.42723  0.42848  0.42973  0.43098  0.43224  0.43349  0.43475

  WITH EQUILIBRIUM REACTIONS

 Cp, KJ/(KG)(K)   20.0424  20.1133  20.1855  20.2588  20.3335  20.4093  20.4865  20.5650
 CONDUCTIVITY     13.2568  13.3733  13.4919  13.6124  13.7350  13.8597  13.9864  14.1153
 PRANDTL NUMBER    0.6440   0.6425   0.6411   0.6396   0.6380   0.6365   0.6350   0.6334

  WITH FROZEN REACTIONS

 Cp, KJ/(KG)(K)   18.0928  18.1053  18.1178  18.1303  18.1426  18.1550  18.1673  18.1796
 CONDUCTIVITY     10.9460  10.9862  11.0264  11.0666  11.1070  11.1474  11.1879  11.2284
 PRANDTL NUMBER    0.7041   0.7041   0.7040   0.7040   0.7040   0.7040   0.7039   0.7039

 MOLE FRACTIONS

 *H               0.00466  0.00483  0.00501  0.00520  0.00538  0.00558  0.00578  0.00598
 *H2              0.99534  0.99517  0.99499  0.99480  0.99462  0.99442  0.99422  0.99402

  * THERMODYNAMIC PROPERTIES FITTED TO 20000.K

 NOTE. WEIGHT FRACTION OF FUEL IN TOTAL FUELS AND OF OXIDANT IN TOTAL OXIDANTS









               THERMODYNAMIC EQUILIBRIUM PROPERTIES AT ASSIGNED

                           TEMPERATURE AND PRESSURE

 CASE =                

             REACTANT                    WT FRACTION      ENERGY      TEMP
                                          (SEE NOTE)     KJ/KG-MOL      K  
             H2                           1.0000000         0.000      0.000

 O/F=    0.00000  %FUEL=100.000000  R,EQ.RATIO= 0.000000  PHI,EQ.RATIO= 0.000000

 THERMODYNAMIC PROPERTIES

 P, BAR            200.00   200.00   200.00   225.00   225.00   225.00   225.00   225.00
 T, K             2820.00  2830.00  2840.00  2700.00  2710.00  2720.00  2730.00  2740.00
 RHO, KG/CU M    1.7142 0 1.7080 0 1.7018 0 2.0166 0 2.0090 0 2.0015 0 1.9940 0 1.9866 0
 H, KJ/KG         41430.8  41637.7  41845.3  38981.5  39178.6  39376.2  39574.5  39773.5
 U, KJ/KG         29763.6  29927.8  30092.7  27824.2  27979.1  28134.6  28290.7  28447.5
 G, KJ/KG       -178350.5-179130.2-179910.7-167736.6-168502.5-169269.2-170036.7-170804.8
 S, KJ/(KG)(K)    77.9366  78.0098  78.0831  76.5623  76.6351  76.7079  76.7807  76.8534

 M, (1/n)           2.010    2.009    2.009    2.012    2.012    2.012    2.012    2.011
 (dLV/dLP)t      -1.00155 -1.00160 -1.00166 -1.00095 -1.00098 -1.00102 -1.00106 -1.00110
 (dLV/dLT)p        1.0303   1.0313   1.0322   1.0193   1.0200   1.0207   1.0214   1.0221
 Cp, KJ/(KG)(K)   20.6447  20.7258  20.8083  19.6714  19.7345  19.7988  19.8641  19.9305
 GAMMAs            1.2677   1.2670   1.2662   1.2777   1.2770   1.2762   1.2755   1.2748
 SON VEL,M/SEC     3845.9   3851.8   3857.6   3775.6   3781.7   3787.7   3793.8   3799.8

 TRANSPORT PROPERTIES (GASES ONLY)
   CONDUCTIVITY IN UNITS OF MILLIWATTS/(CM)(K)

 VISC,MILLIPOISE  0.43601  0.43727  0.43854  0.42094  0.42218  0.42342  0.42467  0.42591

  WITH EQUILIBRIUM REACTIONS

 Cp, KJ/(KG)(K)   20.6447  20.7258  20.8083  19.6714  19.7345  19.7988  19.8641  19.9305
 CONDUCTIVITY     14.2464  14.3796  14.5151  12.6921  12.7970  12.9037  13.0122  13.1224
 PRANDTL NUMBER    0.6318   0.6303   0.6287   0.6524   0.6511   0.6497   0.6483   0.6469

  WITH FROZEN REACTIONS

 Cp, KJ/(KG)(K)   18.1918  18.2040  18.2161  18.0420  18.0547  18.0673  18.0799  18.0925
 CONDUCTIVITY     11.2690  11.3097  11.3505  10.7840  10.8238  10.8636  10.9036  10.9435
 PRANDTL NUMBER    0.7039   0.7038   0.7038   0.7042   0.7042   0.7042   0.7042   0.7041

 MOLE FRACTIONS

 *H               0.00620  0.00641  0.00664  0.00379  0.00393  0.00408  0.00424  0.00439
 *H2              0.99380  0.99359  0.99336  0.99621  0.99607  0.99592  0.99576  0.99561

  * THERMODYNAMIC PROPERTIES FITTED TO 20000.K

 NOTE. WEIGHT FRACTION OF FUEL IN TOTAL FUELS AND OF OXIDANT IN TOTAL OXIDANTS









               THERMODYNAMIC EQUILIBRIUM PROPERTIES AT ASSIGNED

                           TEMPERATURE AND PRESSURE

 CASE =                

             REACTANT                    WT FRACTION      ENERGY      TEMP
                                          (SEE NOTE)     KJ/KG-MOL      K  
             H2                           1.0000000         0.000      0.000

 O/F=    0.00000  %FUEL=100.000000  R,EQ.RATIO= 0.000000  PHI,EQ.RATIO= 0.000000

 THERMODYNAMIC PROPERTIES

 P, BAR            225.00   225.00   225.00   225.00   225.00   225.00   225.00   225.00
 T, K             2750.00  2760.00  2770.00  2780.00  2790.00  2800.00  2810.00  2820.00
 RHO, KG/CU M    1.9792 0 1.9719 0 1.9646 0 1.9573 0 1.9501 0 1.9430 0 1.9359 0 1.9288 0
 H, KJ/KG         39973.1  40173.5  40374.5  40576.2  40778.6  40981.8  41185.7  41390.4
 U, KJ/KG         28604.8  28762.9  28921.6  29080.9  29240.9  29401.6  29563.1  29725.2
 G, KJ/KG       -171573.7-172343.4-173113.7-173884.8-174656.6-175429.1-176202.4-176976.4
 S, KJ/(KG)(K)    76.9261  76.9989  77.0716  77.1442  77.2169  77.2896  77.3623  77.4350

 M, (1/n)           2.011    2.011    2.011    2.011    2.011    2.010    2.010    2.010
 (dLV/dLP)t      -1.00114 -1.00118 -1.00122 -1.00127 -1.00132 -1.00136 -1.00141 -1.00146
 (dLV/dLT)p        1.0228   1.0236   1.0244   1.0252   1.0260   1.0268   1.0277   1.0286
 Cp, KJ/(KG)(K)   19.9981  20.0668  20.1367  20.2078  20.2800  20.3535  20.4281  20.5040
 GAMMAs            1.2741   1.2734   1.2726   1.2719   1.2712   1.2705   1.2697   1.2690
 SON VEL,M/SEC     3805.8   3811.8   3817.8   3823.8   3829.7   3835.7   3841.6   3847.5

 TRANSPORT PROPERTIES (GASES ONLY)
   CONDUCTIVITY IN UNITS OF MILLIWATTS/(CM)(K)

 VISC,MILLIPOISE  0.42716  0.42841  0.42966  0.43091  0.43216  0.43341  0.43467  0.43592

  WITH EQUILIBRIUM REACTIONS

 Cp, KJ/(KG)(K)   19.9981  20.0668  20.1367  20.2078  20.2800  20.3535  20.4281  20.5040
 CONDUCTIVITY     13.2345  13.3485  13.4644  13.5822  13.7019  13.8237  13.9474  14.0732
 PRANDTL NUMBER    0.6455   0.6440   0.6426   0.6411   0.6396   0.6381   0.6366   0.6351

  WITH FROZEN REACTIONS

 Cp, KJ/(KG)(K)   18.1050  18.1175  18.1299  18.1423  18.1546  18.1669  18.1792  18.1914
 CONDUCTIVITY     10.9836  11.0237  11.0638  11.1041  11.1444  11.1847  11.2252  11.2657
 PRANDTL NUMBER    0.7041   0.7041   0.7041   0.7040   0.7040   0.7040   0.7039   0.7039

 MOLE FRACTIONS

 *H               0.00456  0.00473  0.00490  0.00508  0.00526  0.00545  0.00564  0.00584
 *H2              0.99544  0.99527  0.99510  0.99492  0.99474  0.99455  0.99436  0.99416

  * THERMODYNAMIC PROPERTIES FITTED TO 20000.K

 NOTE. WEIGHT FRACTION OF FUEL IN TOTAL FUELS AND OF OXIDANT IN TOTAL OXIDANTS









               THERMODYNAMIC EQUILIBRIUM PROPERTIES AT ASSIGNED

                           TEMPERATURE AND PRESSURE

 CASE =                

             REACTANT                    WT FRACTION      ENERGY      TEMP
                                          (SEE NOTE)     KJ/KG-MOL      K  
             H2                           1.0000000         0.000      0.000

 O/F=    0.00000  %FUEL=100.000000  R,EQ.RATIO= 0.000000  PHI,EQ.RATIO= 0.000000

 THERMODYNAMIC PROPERTIES

 P, BAR            225.00   225.00   250.00   250.00   250.00   250.00   250.00   250.00
 T, K             2830.00  2840.00  2700.00  2710.00  2720.00  2730.00  2740.00  2750.00
 RHO, KG/CU M    1.9218 0 1.9148 0 2.2409 0 2.2325 0 2.2241 0 2.2158 0 2.2076 0 2.1994 0
 H, KJ/KG         41595.8  41802.0  38959.4  39155.6  39352.4  39549.8  39747.8  39946.5
 U, KJ/KG         29888.1  30051.6  27803.2  27957.3  28111.9  28267.2  28423.1  28579.5
 G, KJ/KG       -177751.1-178526.5-166561.1-167322.6-168084.9-168847.9-169611.6-170376.0
 S, KJ/(KG)(K)    77.5077  77.5805  76.1187  76.1912  76.2637  76.3361  76.4085  76.4809

 M, (1/n)           2.010    2.010    2.012    2.012    2.012    2.012    2.012    2.012
 (dLV/dLP)t      -1.00151 -1.00156 -1.00090 -1.00093 -1.00097 -1.00100 -1.00104 -1.00108
 (dLV/dLT)p        1.0295   1.0304   1.0183   1.0190   1.0196   1.0203   1.0210   1.0217
 Cp, KJ/(KG)(K)   20.5812  20.6596  19.5875  19.6481  19.7096  19.7723  19.8359  19.9007
 GAMMAs            1.2683   1.2675   1.2785   1.2778   1.2772   1.2765   1.2758   1.2751
 SON VEL,M/SEC     3853.4   3859.3   3776.7   3782.8   3788.9   3795.0   3801.0   3807.0

 TRANSPORT PROPERTIES (GASES ONLY)
   CONDUCTIVITY IN UNITS OF MILLIWATTS/(CM)(K)

 VISC,MILLIPOISE  0.43718  0.43844  0.42089  0.42213  0.42337  0.42461  0.42586  0.42710

  WITH EQUILIBRIUM REACTIONS

 Cp, KJ/(KG)(K)   20.5812  20.6596  19.5875  19.6481  19.7096  19.7723  19.8359  19.9007
 CONDUCTIVITY     14.2011  14.3311  12.5926  12.6941  12.7973  12.9021  13.0087  13.1171
 PRANDTL NUMBER    0.6336   0.6320   0.6547   0.6534   0.6521   0.6507   0.6494   0.6480

  WITH FROZEN REACTIONS

 Cp, KJ/(KG)(K)   18.2035  18.2157  18.0417  18.0544  18.0670  18.0796  18.0922  18.1047
 CONDUCTIVITY     11.3062  11.3469  10.7822  10.8219  10.8617  10.9015  10.9414  10.9814
 PRANDTL NUMBER    0.7039   0.7038   0.7043   0.7042   0.7042   0.7042   0.7042   0.7042

 MOLE FRACTIONS

 *H               0.00605  0.00626  0.00359  0.00373  0.00387  0.00402  0.00417  0.00432
 *H2              0.99395  0.99374  0.99641  0.99627  0.99613  0.99598  0.99583  0.99568

  * THERMODYNAMIC PROPERTIES FITTED TO 20000.K

 NOTE. WEIGHT FRACTION OF FUEL IN TOTAL FUELS AND OF OXIDANT IN TOTAL OXIDANTS









               THERMODYNAMIC EQUILIBRIUM PROPERTIES AT ASSIGNED

                           TEMPERATURE AND PRESSURE

 CASE =                

             REACTANT                    WT FRACTION      ENERGY      TEMP
                                          (SEE NOTE)     KJ/KG-MOL      K  
             H2                           1.0000000         0.000      0.000

 O/F=    0.00000  %FUEL=100.000000  R,EQ.RATIO= 0.000000  PHI,EQ.RATIO= 0.000000

 THERMODYNAMIC PROPERTIES

 P, BAR            250.00   250.00   250.00   250.00   250.00   250.00   250.00   250.00
 T, K             2760.00  2770.00  2780.00  2790.00  2800.00  2810.00  2820.00  2830.00
 RHO, KG/CU M    2.1912 0 2.1831 0 2.1751 0 2.1671 0 2.1592 0 2.1513 0 2.1435 0 2.1357 0
 H, KJ/KG         40145.8  40345.8  40546.5  40747.9  40949.9  41152.7  41356.2  41560.4
 U, KJ/KG         28736.6  28894.3  29052.7  29211.7  29371.4  29531.7  29692.7  29854.5
 G, KJ/KG       -171141.2-171907.1-172673.7-173441.1-174209.1-174977.9-175747.4-176517.7
 S, KJ/(KG)(K)    76.5533  76.6256  76.6979  76.7702  76.8425  76.9148  76.9871  77.0594

 M, (1/n)           2.011    2.011    2.011    2.011    2.011    2.010    2.010    2.010
 (dLV/dLP)t      -1.00112 -1.00116 -1.00120 -1.00125 -1.00129 -1.00134 -1.00139 -1.00143
 (dLV/dLT)p        1.0224   1.0231   1.0239   1.0247   1.0255   1.0263   1.0271   1.0280
 Cp, KJ/(KG)(K)   19.9665  20.0334  20.1015  20.1706  20.2409  20.3124  20.3850  20.4588
 GAMMAs            1.2744   1.2737   1.2729   1.2722   1.2715   1.2708   1.2701   1.2694
 SON VEL,M/SEC     3813.1   3819.1   3825.0   3831.0   3837.0   3842.9   3848.9   3854.8

 TRANSPORT PROPERTIES (GASES ONLY)
   CONDUCTIVITY IN UNITS OF MILLIWATTS/(CM)(K)

 VISC,MILLIPOISE  0.42835  0.42959  0.43084  0.43209  0.43334  0.43459  0.43585  0.43710

  WITH EQUILIBRIUM REACTIONS

 Cp, KJ/(KG)(K)   19.9665  20.0334  20.1015  20.1706  20.2409  20.3124  20.3850  20.4588
 CONDUCTIVITY     13.2272  13.3391  13.4528  13.5684  13.6859  13.8053  13.9267  14.0500
 PRANDTL NUMBER    0.6466   0.6452   0.6438   0.6423   0.6409   0.6394   0.6380   0.6365

  WITH FROZEN REACTIONS

 Cp, KJ/(KG)(K)   18.1171  18.1296  18.1419  18.1543  18.1666  18.1788  18.1910  18.2032
 CONDUCTIVITY     11.0214  11.0615  11.1016  11.1418  11.1821  11.2224  11.2628  11.3033
 PRANDTL NUMBER    0.7041   0.7041   0.7041   0.7040   0.7040   0.7040   0.7040   0.7039

 MOLE FRACTIONS

 *H               0.00448  0.00465  0.00482  0.00499  0.00517  0.00535  0.00554  0.00574
 *H2              0.99552  0.99535  0.99518  0.99501  0.99483  0.99465  0.99446  0.99426

  * THERMODYNAMIC PROPERTIES FITTED TO 20000.K

 NOTE. WEIGHT FRACTION OF FUEL IN TOTAL FUELS AND OF OXIDANT IN TOTAL OXIDANTS









               THERMODYNAMIC EQUILIBRIUM PROPERTIES AT ASSIGNED

                           TEMPERATURE AND PRESSURE

 CASE =                

             REACTANT                    WT FRACTION      ENERGY      TEMP
                                          (SEE NOTE)     KJ/KG-MOL      K  
             H2                           1.0000000         0.000      0.000

 O/F=    0.00000  %FUEL=100.000000  R,EQ.RATIO= 0.000000  PHI,EQ.RATIO= 0.000000

 THERMODYNAMIC PROPERTIES

 P, BAR            250.00
 T, K             2840.00
 RHO, KG/CU M    2.1279 0
 H, KJ/KG         41765.3
 U, KJ/KG         30016.9
 G, KJ/KG       -177288.6
 S, KJ/(KG)(K)    77.1317

 M, (1/n)           2.010
 (dLV/dLP)t      -1.00148
 (dLV/dLT)p        1.0288
 Cp, KJ/(KG)(K)   20.5338
 GAMMAs            1.2687
 SON VEL,M/SEC     3860.7

 TRANSPORT PROPERTIES (GASES ONLY)
   CONDUCTIVITY IN UNITS OF MILLIWATTS/(CM)(K)

 VISC,MILLIPOISE  0.43836

  WITH EQUILIBRIUM REACTIONS

 Cp, KJ/(KG)(K)   20.5338
 CONDUCTIVITY     14.1753
 PRANDTL NUMBER    0.6350

  WITH FROZEN REACTIONS

 Cp, KJ/(KG)(K)   18.2153
 CONDUCTIVITY     11.3438
 PRANDTL NUMBER    0.7039

 MOLE FRACTIONS

 *H               0.00594
 *H2              0.99406

  * THERMODYNAMIC PROPERTIES FITTED TO 20000.K

 NOTE. WEIGHT FRACTION OF FUEL IN TOTAL FUELS AND OF OXIDANT IN TOTAL OXIDANTS



  
