
 *******************************************************************************

         NASA-GLENN CHEMICAL EQUILIBRIUM PROGRAM CEA2, MAY 21, 2004
                   BY  BONNIE MCBRIDE AND SANFORD GORDON
      REFS: NASA RP-1311, PART I, 1994 AND NASA RP-1311, PART II, 1996

 *******************************************************************************



  prob tp ions
  p,bar= 0.0049,0.0054,0.006,0.0067,0.0074,0.00825,0.0091,0.01,0.011,0.012,0.0132
 ,0.0148,0.0165,0.018,0.02
  t,k= 5250,5260,5270,5280,5290,5300,5310,5320,5330,5340,5350,5360,5370,5380,5390
  
  reac
  na H2                wt%=100.0000
  
  output short
  output siunits
  output transport
  
 end





               THERMODYNAMIC EQUILIBRIUM PROPERTIES AT ASSIGNED

                           TEMPERATURE AND PRESSURE

 CASE =                

             REACTANT                    WT FRACTION      ENERGY      TEMP
                                          (SEE NOTE)     KJ/KG-MOL      K  
             H2                           1.0000000         0.000      0.000

 O/F=    0.00000  %FUEL=100.000000  R,EQ.RATIO= 0.000000  PHI,EQ.RATIO= 0.000000

 THERMODYNAMIC PROPERTIES

 P, BAR           0.00490  0.00490  0.00490  0.00490  0.00490  0.00490  0.00490  0.00490
 T, K             5250.00  5260.00  5270.00  5280.00  5290.00  5300.00  5310.00  5320.00
 RHO, KG/CU M    1.1314-5 1.1292-5 1.1271-5 1.1250-5 1.1228-5 1.1207-5 1.1186-5 1.1165-5
 H, KJ/KG        318523.7 318735.4 318947.3 319159.3 319371.4 319583.6 319796.0 320008.5
 U, KJ/KG        275214.6 275343.7 275472.8 275602.1 275731.5 275861.1 275990.7 276120.5
 G, KJ/KG       -820021.9-822190.8-824360.0-826529.7-828699.8-830870.2-833041.0-835212.3
 S, KJ/(KG)(K)   216.8658 216.9061 216.9464 216.9865 217.0267 217.0668 217.1068 217.1468

 M, (1/n)           1.008    1.008    1.008    1.008    1.008    1.008    1.008    1.008
 (dLV/dLP)t      -1.00012 -1.00012 -1.00012 -1.00012 -1.00013 -1.00013 -1.00013 -1.00013
 (dLV/dLT)p        1.0025   1.0026   1.0026   1.0026   1.0027   1.0027   1.0028   1.0028
 Cp, KJ/(KG)(K)   21.1684  21.1803  21.1925  21.2051  21.2180  21.2313  21.2450  21.2591
 GAMMAs            1.6435   1.6430   1.6425   1.6419   1.6414   1.6408   1.6402   1.6396
 SON VEL,M/SEC     8436.7   8443.5   8450.2   8456.8   8463.4   8470.0   8476.5   8483.0

 TRANSPORT PROPERTIES (GASES ONLY)
   CONDUCTIVITY IN UNITS OF MILLIWATTS/(CM)(K)

 VISC,MILLIPOISE  0.56404  0.56492  0.56580  0.56668  0.56756  0.56844  0.56932  0.57020

  WITH EQUILIBRIUM REACTIONS

 Cp, KJ/(KG)(K)   21.1684  21.1803  21.1925  21.2051  21.2180  21.2313  21.2450  21.2591
 CONDUCTIVITY     17.6054  17.6338  17.6623  17.6909  17.7197  17.7485  17.7775  17.8066
 PRANDTL NUMBER    0.6782   0.6785   0.6789   0.6792   0.6796   0.6800   0.6804   0.6808

  WITH FROZEN REACTIONS

 Cp, KJ/(KG)(K)   20.6248  20.6248  20.6249  20.6250  20.6251  20.6251  20.6252  20.6253
 CONDUCTIVITY     17.4626  17.4903  17.5180  17.5458  17.5736  17.6014  17.6292  17.6570
 PRANDTL NUMBER    0.6662   0.6662   0.6661   0.6661   0.6661   0.6661   0.6661   0.6661

 MOLE FRACTIONS

 *e-              0.00011  0.00011  0.00012  0.00012  0.00012  0.00013  0.00013  0.00014
 *H               0.99971  0.99971  0.99970  0.99969  0.99969  0.99968  0.99968  0.99967
 *H+              0.00011  0.00011  0.00012  0.00012  0.00012  0.00013  0.00013  0.00014
 *H2              0.00007  0.00007  0.00007  0.00007  0.00006  0.00006  0.00006  0.00006

  * THERMODYNAMIC PROPERTIES FITTED TO 20000.K

 NOTE. WEIGHT FRACTION OF FUEL IN TOTAL FUELS AND OF OXIDANT IN TOTAL OXIDANTS









               THERMODYNAMIC EQUILIBRIUM PROPERTIES AT ASSIGNED

                           TEMPERATURE AND PRESSURE

 CASE =                

             REACTANT                    WT FRACTION      ENERGY      TEMP
                                          (SEE NOTE)     KJ/KG-MOL      K  
             H2                           1.0000000         0.000      0.000

 O/F=    0.00000  %FUEL=100.000000  R,EQ.RATIO= 0.000000  PHI,EQ.RATIO= 0.000000

 THERMODYNAMIC PROPERTIES

 P, BAR           0.00490  0.00490  0.00490  0.00490  0.00490  0.00490  0.00490  0.00540
 T, K             5330.00  5340.00  5350.00  5360.00  5370.00  5380.00  5390.00  5250.00
 RHO, KG/CU M    1.1144-5 1.1123-5 1.1102-5 1.1081-5 1.1061-5 1.1040-5 1.1019-5 1.2469-5
 H, KJ/KG        320221.2 320434.0 320647.0 320860.1 321073.3 321286.8 321500.4 318513.1
 U, KJ/KG        276250.4 276380.5 276510.7 276641.1 276771.6 276902.3 277033.1 275204.6
 G, KJ/KG       -837384.0-839556.0-841728.5-843901.4-846074.6-848248.3-850422.3-815813.8
 S, KJ/(KG)(K)   217.1867 217.2266 217.2664 217.3062 217.3460 217.3857 217.4254 216.0623

 M, (1/n)           1.008    1.008    1.008    1.008    1.008    1.008    1.008    1.008
 (dLV/dLP)t      -1.00013 -1.00013 -1.00013 -1.00013 -1.00013 -1.00013 -1.00014 -1.00013
 (dLV/dLT)p        1.0029   1.0029   1.0030   1.0030   1.0031   1.0031   1.0032   1.0025
 Cp, KJ/(KG)(K)   21.2736  21.2885  21.3038  21.3195  21.3356  21.3521  21.3691  21.1522
 GAMMAs            1.6390   1.6384   1.6378   1.6371   1.6365   1.6358   1.6351   1.6443
 SON VEL,M/SEC     8489.4   8495.8   8502.1   8508.4   8514.6   8520.8   8526.9   8438.7

 TRANSPORT PROPERTIES (GASES ONLY)
   CONDUCTIVITY IN UNITS OF MILLIWATTS/(CM)(K)

 VISC,MILLIPOISE  0.57108  0.57196  0.57284  0.57372  0.57461  0.57549  0.57637  0.56408

  WITH EQUILIBRIUM REACTIONS

 Cp, KJ/(KG)(K)   21.2736  21.2885  21.3038  21.3195  21.3356  21.3521  21.3691  21.1522
 CONDUCTIVITY     17.8358  17.8651  17.8945  17.9240  17.9537  17.9835  18.0133  17.6090
 PRANDTL NUMBER    0.6812   0.6816   0.6820   0.6824   0.6828   0.6833   0.6837   0.6776

  WITH FROZEN REACTIONS

 Cp, KJ/(KG)(K)   20.6254  20.6255  20.6256  20.6257  20.6258  20.6259  20.6260  20.6247
 CONDUCTIVITY     17.6849  17.7128  17.7407  17.7686  17.7966  17.8245  17.8525  17.4628
 PRANDTL NUMBER    0.6660   0.6660   0.6660   0.6660   0.6660   0.6659   0.6659   0.6662

 MOLE FRACTIONS

 *e-              0.00014  0.00014  0.00015  0.00015  0.00016  0.00016  0.00017  0.00010
 *H               0.99966  0.99965  0.99965  0.99964  0.99963  0.99962  0.99961  0.99971
 *H+              0.00014  0.00014  0.00015  0.00015  0.00016  0.00016  0.00017  0.00010
 *H2              0.00006  0.00006  0.00006  0.00006  0.00005  0.00005  0.00005  0.00008

  * THERMODYNAMIC PROPERTIES FITTED TO 20000.K

 NOTE. WEIGHT FRACTION OF FUEL IN TOTAL FUELS AND OF OXIDANT IN TOTAL OXIDANTS









               THERMODYNAMIC EQUILIBRIUM PROPERTIES AT ASSIGNED

                           TEMPERATURE AND PRESSURE

 CASE =                

             REACTANT                    WT FRACTION      ENERGY      TEMP
                                          (SEE NOTE)     KJ/KG-MOL      K  
             H2                           1.0000000         0.000      0.000

 O/F=    0.00000  %FUEL=100.000000  R,EQ.RATIO= 0.000000  PHI,EQ.RATIO= 0.000000

 THERMODYNAMIC PROPERTIES

 P, BAR           0.00540  0.00540  0.00540  0.00540  0.00540  0.00540  0.00540  0.00540
 T, K             5260.00  5270.00  5280.00  5290.00  5300.00  5310.00  5320.00  5330.00
 RHO, KG/CU M    1.2445-5 1.2421-5 1.2398-5 1.2374-5 1.2351-5 1.2327-5 1.2304-5 1.2281-5
 H, KJ/KG        318724.7 318936.4 319148.2 319360.1 319572.1 319784.3 319996.6 320209.0
 U, KJ/KG        275333.5 275462.4 275591.5 275720.8 275850.1 275979.6 276109.1 276238.8
 G, KJ/KG       -817974.7-820135.9-822297.5-824459.6-826622.0-828784.8-830948.0-833111.6
 S, KJ/(KG)(K)   216.1025 216.1427 216.1829 216.2230 216.2630 216.3030 216.3430 216.3829

 M, (1/n)           1.008    1.008    1.008    1.008    1.008    1.008    1.008    1.008
 (dLV/dLP)t      -1.00013 -1.00013 -1.00013 -1.00013 -1.00013 -1.00013 -1.00013 -1.00013
 (dLV/dLT)p        1.0025   1.0026   1.0026   1.0027   1.0027   1.0027   1.0028   1.0028
 Cp, KJ/(KG)(K)   21.1633  21.1747  21.1865  21.1986  21.2111  21.2239  21.2371  21.2508
 GAMMAs            1.6438   1.6433   1.6428   1.6423   1.6417   1.6412   1.6406   1.6401
 SON VEL,M/SEC     8445.5   8452.3   8459.0   8465.7   8472.3   8478.9   8485.5   8492.0

 TRANSPORT PROPERTIES (GASES ONLY)
   CONDUCTIVITY IN UNITS OF MILLIWATTS/(CM)(K)

 VISC,MILLIPOISE  0.56496  0.56584  0.56672  0.56760  0.56848  0.56936  0.57024  0.57112

  WITH EQUILIBRIUM REACTIONS

 Cp, KJ/(KG)(K)   21.1633  21.1747  21.1864  21.1986  21.2111  21.2239  21.2371  21.2508
 CONDUCTIVITY     17.6372  17.6654  17.6938  17.7223  17.7509  17.7796  17.8085  17.8374
 PRANDTL NUMBER    0.6779   0.6782   0.6786   0.6789   0.6793   0.6797   0.6800   0.6804

  WITH FROZEN REACTIONS

 Cp, KJ/(KG)(K)   20.6247  20.6248  20.6249  20.6249  20.6250  20.6251  20.6252  20.6253
 CONDUCTIVITY     17.4906  17.5183  17.5461  17.5739  17.6017  17.6295  17.6574  17.6852
 PRANDTL NUMBER    0.6662   0.6662   0.6662   0.6661   0.6661   0.6661   0.6661   0.6661

 MOLE FRACTIONS

 *e-              0.00011  0.00011  0.00011  0.00012  0.00012  0.00013  0.00013  0.00013
 *H               0.99971  0.99970  0.99970  0.99969  0.99969  0.99968  0.99968  0.99967
 *H+              0.00011  0.00011  0.00011  0.00012  0.00012  0.00013  0.00013  0.00013
 *H2              0.00007  0.00007  0.00007  0.00007  0.00007  0.00007  0.00007  0.00007

  * THERMODYNAMIC PROPERTIES FITTED TO 20000.K

 NOTE. WEIGHT FRACTION OF FUEL IN TOTAL FUELS AND OF OXIDANT IN TOTAL OXIDANTS









               THERMODYNAMIC EQUILIBRIUM PROPERTIES AT ASSIGNED

                           TEMPERATURE AND PRESSURE

 CASE =                

             REACTANT                    WT FRACTION      ENERGY      TEMP
                                          (SEE NOTE)     KJ/KG-MOL      K  
             H2                           1.0000000         0.000      0.000

 O/F=    0.00000  %FUEL=100.000000  R,EQ.RATIO= 0.000000  PHI,EQ.RATIO= 0.000000

 THERMODYNAMIC PROPERTIES

 P, BAR           0.00540  0.00540  0.00540  0.00540  0.00540  0.00540  0.00600  0.00600
 T, K             5340.00  5350.00  5360.00  5370.00  5380.00  5390.00  5250.00  5260.00
 RHO, KG/CU M    1.2258-5 1.2235-5 1.2212-5 1.2189-5 1.2167-5 1.2144-5 1.3854-5 1.3828-5
 H, KJ/KG        320421.6 320634.3 320847.2 321060.2 321273.4 321486.7 318501.6 318713.1
 U, KJ/KG        276368.7 276498.6 276628.8 276759.0 276889.5 277020.0 275193.7 275322.4
 G, KJ/KG       -835275.7-837440.1-839604.9-841770.1-843935.8-846101.8-811250.8-813403.0
 S, KJ/(KG)(K)   216.4227 216.4625 216.5023 216.5420 216.5816 216.6212 215.1909 215.2312

 M, (1/n)           1.008    1.008    1.008    1.008    1.008    1.008    1.008    1.008
 (dLV/dLP)t      -1.00013 -1.00013 -1.00013 -1.00014 -1.00014 -1.00014 -1.00013 -1.00013
 (dLV/dLT)p        1.0029   1.0029   1.0030   1.0030   1.0031   1.0031   1.0025   1.0025
 Cp, KJ/(KG)(K)   21.2647  21.2791  21.2939  21.3091  21.3247  21.3407  21.1366  21.1469
 GAMMAs            1.6395   1.6389   1.6382   1.6376   1.6370   1.6363   1.6450   1.6446
 SON VEL,M/SEC     8498.4   8504.8   8511.2   8517.5   8523.8   8530.0   8440.5   8447.4

 TRANSPORT PROPERTIES (GASES ONLY)
   CONDUCTIVITY IN UNITS OF MILLIWATTS/(CM)(K)

 VISC,MILLIPOISE  0.57201  0.57289  0.57377  0.57465  0.57554  0.57642  0.56412  0.56500

  WITH EQUILIBRIUM REACTIONS

 Cp, KJ/(KG)(K)   21.2647  21.2791  21.2939  21.3091  21.3247  21.3407  21.1366  21.1469
 CONDUCTIVITY     17.8665  17.8957  17.9250  17.9544  17.9839  18.0135  17.6139  17.6418
 PRANDTL NUMBER    0.6808   0.6812   0.6816   0.6820   0.6824   0.6829   0.6769   0.6772

  WITH FROZEN REACTIONS

 Cp, KJ/(KG)(K)   20.6253  20.6254  20.6255  20.6256  20.6257  20.6258  20.6245  20.6246
 CONDUCTIVITY     17.7131  17.7410  17.7690  17.7969  17.8249  17.8529  17.4631  17.4909
 PRANDTL NUMBER    0.6661   0.6660   0.6660   0.6660   0.6660   0.6659   0.6662   0.6662

 MOLE FRACTIONS

 *e-              0.00014  0.00014  0.00015  0.00015  0.00015  0.00016  0.00010  0.00010
 *H               0.99966  0.99965  0.99965  0.99964  0.99963  0.99962  0.99972  0.99971
 *H+              0.00014  0.00014  0.00015  0.00015  0.00015  0.00016  0.00010  0.00010
 *H2              0.00006  0.00006  0.00006  0.00006  0.00006  0.00006  0.00008  0.00008

  * THERMODYNAMIC PROPERTIES FITTED TO 20000.K

 NOTE. WEIGHT FRACTION OF FUEL IN TOTAL FUELS AND OF OXIDANT IN TOTAL OXIDANTS









               THERMODYNAMIC EQUILIBRIUM PROPERTIES AT ASSIGNED

                           TEMPERATURE AND PRESSURE

 CASE =                

             REACTANT                    WT FRACTION      ENERGY      TEMP
                                          (SEE NOTE)     KJ/KG-MOL      K  
             H2                           1.0000000         0.000      0.000

 O/F=    0.00000  %FUEL=100.000000  R,EQ.RATIO= 0.000000  PHI,EQ.RATIO= 0.000000

 THERMODYNAMIC PROPERTIES

 P, BAR           0.00600  0.00600  0.00600  0.00600  0.00600  0.00600  0.00600  0.00600
 T, K             5270.00  5280.00  5290.00  5300.00  5310.00  5320.00  5330.00  5340.00
 RHO, KG/CU M    1.3802-5 1.3775-5 1.3749-5 1.3723-5 1.3697-5 1.3672-5 1.3646-5 1.3620-5
 H, KJ/KG        318924.6 319136.2 319347.9 319559.8 319771.8 319983.8 320196.1 320408.4
 U, KJ/KG        275451.3 275580.2 275709.2 275838.4 275967.6 276096.9 276226.4 276356.1
 G, KJ/KG       -815555.5-817708.4-819861.7-822015.4-824169.6-826324.0-828478.9-830634.3
 S, KJ/(KG)(K)   215.2714 215.3115 215.3515 215.3916 215.4315 215.4714 215.5113 215.5511

 M, (1/n)           1.008    1.008    1.008    1.008    1.008    1.008    1.008    1.008
 (dLV/dLP)t      -1.00013 -1.00013 -1.00013 -1.00013 -1.00013 -1.00014 -1.00014 -1.00014
 (dLV/dLT)p        1.0026   1.0026   1.0026   1.0027   1.0027   1.0027   1.0028   1.0028
 Cp, KJ/(KG)(K)   21.1574  21.1683  21.1796  21.1912  21.2031  21.2154  21.2281  21.2412
 GAMMAs            1.6441   1.6436   1.6432   1.6427   1.6421   1.6416   1.6411   1.6405
 SON VEL,M/SEC     8454.3   8461.1   8467.9   8474.6   8481.3   8488.0   8494.6   8501.1

 TRANSPORT PROPERTIES (GASES ONLY)
   CONDUCTIVITY IN UNITS OF MILLIWATTS/(CM)(K)

 VISC,MILLIPOISE  0.56588  0.56676  0.56764  0.56852  0.56940  0.57029  0.57117  0.57205

  WITH EQUILIBRIUM REACTIONS

 Cp, KJ/(KG)(K)   21.1574  21.1683  21.1796  21.1912  21.2031  21.2154  21.2281  21.2412
 CONDUCTIVITY     17.6698  17.6979  17.7261  17.7544  17.7829  17.8114  17.8401  17.8689
 PRANDTL NUMBER    0.6776   0.6779   0.6782   0.6786   0.6789   0.6793   0.6796   0.6800

  WITH FROZEN REACTIONS

 Cp, KJ/(KG)(K)   20.6247  20.6247  20.6248  20.6249  20.6250  20.6250  20.6251  20.6252
 CONDUCTIVITY     17.5186  17.5464  17.5742  17.6020  17.6298  17.6577  17.6856  17.7135
 PRANDTL NUMBER    0.6662   0.6662   0.6662   0.6662   0.6661   0.6661   0.6661   0.6661

 MOLE FRACTIONS

 *e-              0.00011  0.00011  0.00011  0.00012  0.00012  0.00012  0.00013  0.00013
 *H               0.99971  0.99970  0.99970  0.99969  0.99969  0.99968  0.99967  0.99967
 *H+              0.00011  0.00011  0.00011  0.00012  0.00012  0.00012  0.00013  0.00013
 *H2              0.00008  0.00008  0.00008  0.00008  0.00008  0.00007  0.00007  0.00007

  * THERMODYNAMIC PROPERTIES FITTED TO 20000.K

 NOTE. WEIGHT FRACTION OF FUEL IN TOTAL FUELS AND OF OXIDANT IN TOTAL OXIDANTS









               THERMODYNAMIC EQUILIBRIUM PROPERTIES AT ASSIGNED

                           TEMPERATURE AND PRESSURE

 CASE =                

             REACTANT                    WT FRACTION      ENERGY      TEMP
                                          (SEE NOTE)     KJ/KG-MOL      K  
             H2                           1.0000000         0.000      0.000

 O/F=    0.00000  %FUEL=100.000000  R,EQ.RATIO= 0.000000  PHI,EQ.RATIO= 0.000000

 THERMODYNAMIC PROPERTIES

 P, BAR           0.00600  0.00600  0.00600  0.00600  0.00600  0.00670  0.00670  0.00670
 T, K             5350.00  5360.00  5370.00  5380.00  5390.00  5250.00  5260.00  5270.00
 RHO, KG/CU M    1.3595-5 1.3569-5 1.3544-5 1.3519-5 1.3493-5 1.5471-5 1.5441-5 1.5412-5
 H, KJ/KG        320620.9 320833.5 321046.2 321259.1 321472.2 318489.6 318700.9 318912.2
 U, KJ/KG        276485.8 276615.7 276745.7 276875.9 277006.2 275182.3 275310.9 275439.6
 G, KJ/KG       -832790.0-834946.1-837102.6-839259.5-841416.8-806471.9-808615.0-810758.3
 S, KJ/(KG)(K)   215.5908 215.6305 215.6702 215.7098 215.7493 214.2784 214.3186 214.3587

 M, (1/n)           1.008    1.008    1.008    1.008    1.008    1.008    1.008    1.008
 (dLV/dLP)t      -1.00014 -1.00014 -1.00014 -1.00014 -1.00014 -1.00014 -1.00014 -1.00014
 (dLV/dLT)p        1.0029   1.0029   1.0030   1.0030   1.0031   1.0025   1.0026   1.0026
 Cp, KJ/(KG)(K)   21.2546  21.2684  21.2826  21.2972  21.3122  21.1226  21.1319  21.1416
 GAMMAs            1.6400   1.6394   1.6388   1.6382   1.6375   1.6457   1.6453   1.6449
 SON VEL,M/SEC     8507.6   8514.1   8520.5   8526.9   8533.2   8442.3   8449.3   8456.2

 TRANSPORT PROPERTIES (GASES ONLY)
   CONDUCTIVITY IN UNITS OF MILLIWATTS/(CM)(K)

 VISC,MILLIPOISE  0.57294  0.57382  0.57470  0.57559  0.57647  0.56416  0.56504  0.56592

  WITH EQUILIBRIUM REACTIONS

 Cp, KJ/(KG)(K)   21.2546  21.2684  21.2826  21.2972  21.3122  21.1226  21.1319  21.1416
 CONDUCTIVITY     17.8978  17.9269  17.9560  17.9853  18.0146  17.6203  17.6478  17.6755
 PRANDTL NUMBER    0.6804   0.6808   0.6812   0.6816   0.6820   0.6763   0.6766   0.6769

  WITH FROZEN REACTIONS

 Cp, KJ/(KG)(K)   20.6253  20.6254  20.6255  20.6255  20.6256  20.6244  20.6245  20.6246
 CONDUCTIVITY     17.7414  17.7693  17.7973  17.8253  17.8533  17.4635  17.4912  17.5190
 PRANDTL NUMBER    0.6661   0.6660   0.6660   0.6660   0.6660   0.6663   0.6663   0.6662

 MOLE FRACTIONS

 *e-              0.00013  0.00014  0.00014  0.00015  0.00015  0.00009  0.00010  0.00010
 *H               0.99966  0.99966  0.99965  0.99964  0.99963  0.99972  0.99971  0.99971
 *H+              0.00013  0.00014  0.00014  0.00015  0.00015  0.00009  0.00010  0.00010
 *H2              0.00007  0.00007  0.00007  0.00007  0.00006  0.00009  0.00009  0.00009

  * THERMODYNAMIC PROPERTIES FITTED TO 20000.K

 NOTE. WEIGHT FRACTION OF FUEL IN TOTAL FUELS AND OF OXIDANT IN TOTAL OXIDANTS









               THERMODYNAMIC EQUILIBRIUM PROPERTIES AT ASSIGNED

                           TEMPERATURE AND PRESSURE

 CASE =                

             REACTANT                    WT FRACTION      ENERGY      TEMP
                                          (SEE NOTE)     KJ/KG-MOL      K  
             H2                           1.0000000         0.000      0.000

 O/F=    0.00000  %FUEL=100.000000  R,EQ.RATIO= 0.000000  PHI,EQ.RATIO= 0.000000

 THERMODYNAMIC PROPERTIES

 P, BAR           0.00670  0.00670  0.00670  0.00670  0.00670  0.00670  0.00670  0.00670
 T, K             5280.00  5290.00  5300.00  5310.00  5320.00  5330.00  5340.00  5350.00
 RHO, KG/CU M    1.5383-5 1.5354-5 1.5325-5 1.5296-5 1.5267-5 1.5238-5 1.5209-5 1.5181-5
 H, KJ/KG        319123.7 319335.3 319546.9 319758.7 319970.6 320182.6 320394.7 320607.0
 U, KJ/KG        275568.3 275697.2 275826.2 275955.2 276084.4 276213.6 276343.0 276472.6
 G, KJ/KG       -812902.1-815046.3-817190.9-819335.9-821481.3-823627.0-825773.2-827919.8
 S, KJ/(KG)(K)   214.3988 214.4389 214.4788 214.5188 214.5586 214.5984 214.6382 214.6779

 M, (1/n)           1.008    1.008    1.008    1.008    1.008    1.008    1.008    1.008
 (dLV/dLP)t      -1.00014 -1.00014 -1.00014 -1.00014 -1.00014 -1.00014 -1.00014 -1.00014
 (dLV/dLT)p        1.0026   1.0026   1.0027   1.0027   1.0027   1.0028   1.0028   1.0028
 Cp, KJ/(KG)(K)   21.1516  21.1619  21.1726  21.1837  21.1950  21.2068  21.2189  21.2313
 GAMMAs            1.6445   1.6440   1.6435   1.6431   1.6426   1.6421   1.6415   1.6410
 SON VEL,M/SEC     8463.2   8470.0   8476.8   8483.6   8490.4   8497.0   8503.7   8510.3

 TRANSPORT PROPERTIES (GASES ONLY)
   CONDUCTIVITY IN UNITS OF MILLIWATTS/(CM)(K)

 VISC,MILLIPOISE  0.56680  0.56768  0.56857  0.56945  0.57033  0.57122  0.57210  0.57298

  WITH EQUILIBRIUM REACTIONS

 Cp, KJ/(KG)(K)   21.1516  21.1619  21.1726  21.1837  21.1950  21.2068  21.2189  21.2313
 CONDUCTIVITY     17.7033  17.7312  17.7592  17.7874  17.8156  17.8440  17.8725  17.9011
 PRANDTL NUMBER    0.6772   0.6775   0.6778   0.6782   0.6785   0.6789   0.6792   0.6796

  WITH FROZEN REACTIONS

 Cp, KJ/(KG)(K)   20.6246  20.6247  20.6248  20.6248  20.6249  20.6250  20.6251  20.6251
 CONDUCTIVITY     17.5467  17.5745  17.6023  17.6302  17.6581  17.6859  17.7138  17.7418
 PRANDTL NUMBER    0.6662   0.6662   0.6662   0.6662   0.6662   0.6661   0.6661   0.6661

 MOLE FRACTIONS

 *e-              0.00010  0.00011  0.00011  0.00011  0.00012  0.00012  0.00012  0.00013
 *H               0.99971  0.99970  0.99970  0.99969  0.99969  0.99968  0.99967  0.99967
 *H+              0.00010  0.00011  0.00011  0.00011  0.00012  0.00012  0.00012  0.00013
 *H2              0.00009  0.00009  0.00009  0.00008  0.00008  0.00008  0.00008  0.00008

  * THERMODYNAMIC PROPERTIES FITTED TO 20000.K

 NOTE. WEIGHT FRACTION OF FUEL IN TOTAL FUELS AND OF OXIDANT IN TOTAL OXIDANTS









               THERMODYNAMIC EQUILIBRIUM PROPERTIES AT ASSIGNED

                           TEMPERATURE AND PRESSURE

 CASE =                

             REACTANT                    WT FRACTION      ENERGY      TEMP
                                          (SEE NOTE)     KJ/KG-MOL      K  
             H2                           1.0000000         0.000      0.000

 O/F=    0.00000  %FUEL=100.000000  R,EQ.RATIO= 0.000000  PHI,EQ.RATIO= 0.000000

 THERMODYNAMIC PROPERTIES

 P, BAR           0.00670  0.00670  0.00670  0.00670  0.00740  0.00740  0.00740  0.00740
 T, K             5360.00  5370.00  5380.00  5390.00  5250.00  5260.00  5270.00  5280.00
 RHO, KG/CU M    1.5152-5 1.5124-5 1.5096-5 1.5068-5 1.7087-5 1.7055-5 1.7022-5 1.6990-5
 H, KJ/KG        320819.3 321031.8 321244.5 321457.3 318478.6 318689.8 318901.0 319112.4
 U, KJ/KG        276602.2 276732.0 276861.9 276991.9 275171.9 275300.4 275429.0 275557.6
 G, KJ/KG       -830066.8-832214.1-834361.9-836510.1-802168.4-804303.2-806438.4-808574.0
 S, KJ/(KG)(K)   214.7176 214.7572 214.7967 214.8362 213.4566 213.4968 213.5369 213.5770

 M, (1/n)           1.008    1.008    1.008    1.008    1.008    1.008    1.008    1.008
 (dLV/dLP)t      -1.00014 -1.00014 -1.00014 -1.00014 -1.00015 -1.00015 -1.00015 -1.00015
 (dLV/dLT)p        1.0029   1.0029   1.0030   1.0030   1.0026   1.0026   1.0026   1.0026
 Cp, KJ/(KG)(K)   21.2442  21.2574  21.2709  21.2849  21.1119  21.1204  21.1293  21.1386
 GAMMAs            1.6405   1.6399   1.6393   1.6388   1.6463   1.6459   1.6455   1.6451
 SON VEL,M/SEC     8516.9   8523.4   8529.8   8536.3   8443.7   8450.8   8457.8   8464.8

 TRANSPORT PROPERTIES (GASES ONLY)
   CONDUCTIVITY IN UNITS OF MILLIWATTS/(CM)(K)

 VISC,MILLIPOISE  0.57387  0.57475  0.57564  0.57652  0.56419  0.56507  0.56596  0.56684

  WITH EQUILIBRIUM REACTIONS

 Cp, KJ/(KG)(K)   21.2442  21.2574  21.2709  21.2849  21.1119  21.1204  21.1293  21.1386
 CONDUCTIVITY     17.9299  17.9587  17.9877  18.0168  17.6272  17.6544  17.6818  17.7093
 PRANDTL NUMBER    0.6799   0.6803   0.6807   0.6811   0.6757   0.6760   0.6763   0.6766

  WITH FROZEN REACTIONS

 Cp, KJ/(KG)(K)   20.6252  20.6253  20.6254  20.6255  20.6243  20.6244  20.6245  20.6245
 CONDUCTIVITY     17.7697  17.7977  17.8257  17.8537  17.4638  17.4915  17.5193  17.5470
 PRANDTL NUMBER    0.6661   0.6661   0.6660   0.6660   0.6663   0.6663   0.6663   0.6663

 MOLE FRACTIONS

 *e-              0.00013  0.00013  0.00014  0.00014  0.00009  0.00009  0.00009  0.00010
 *H               0.99966  0.99966  0.99965  0.99964  0.99972  0.99971  0.99971  0.99971
 *H+              0.00013  0.00013  0.00014  0.00014  0.00009  0.00009  0.00009  0.00010
 *H2              0.00008  0.00007  0.00007  0.00007  0.00010  0.00010  0.00010  0.00010

  * THERMODYNAMIC PROPERTIES FITTED TO 20000.K

 NOTE. WEIGHT FRACTION OF FUEL IN TOTAL FUELS AND OF OXIDANT IN TOTAL OXIDANTS









               THERMODYNAMIC EQUILIBRIUM PROPERTIES AT ASSIGNED

                           TEMPERATURE AND PRESSURE

 CASE =                

             REACTANT                    WT FRACTION      ENERGY      TEMP
                                          (SEE NOTE)     KJ/KG-MOL      K  
             H2                           1.0000000         0.000      0.000

 O/F=    0.00000  %FUEL=100.000000  R,EQ.RATIO= 0.000000  PHI,EQ.RATIO= 0.000000

 THERMODYNAMIC PROPERTIES

 P, BAR           0.00740  0.00740  0.00740  0.00740  0.00740  0.00740  0.00740  0.00740
 T, K             5290.00  5300.00  5310.00  5320.00  5330.00  5340.00  5350.00  5360.00
 RHO, KG/CU M    1.6958-5 1.6926-5 1.6894-5 1.6862-5 1.6830-5 1.6799-5 1.6767-5 1.6736-5
 H, KJ/KG        319323.8 319535.3 319747.0 319958.7 320170.5 320382.5 320594.5 320806.7
 U, KJ/KG        275686.4 275815.2 275944.1 276073.1 276202.2 276331.4 276460.8 276590.2
 G, KJ/KG       -810709.9-812846.3-814983.1-817120.2-819257.7-821395.7-823534.1-825672.8
 S, KJ/(KG)(K)   213.6170 213.6569 213.6968 213.7366 213.7764 213.8161 213.8558 213.8954

 M, (1/n)           1.008    1.008    1.008    1.008    1.008    1.008    1.008    1.008
 (dLV/dLP)t      -1.00015 -1.00015 -1.00015 -1.00015 -1.00015 -1.00015 -1.00015 -1.00015
 (dLV/dLT)p        1.0027   1.0027   1.0027   1.0027   1.0028   1.0028   1.0028   1.0029
 Cp, KJ/(KG)(K)   21.1481  21.1580  21.1682  21.1788  21.1897  21.2009  21.2125  21.2245
 GAMMAs            1.6447   1.6443   1.6438   1.6434   1.6429   1.6424   1.6419   1.6414
 SON VEL,M/SEC     8471.7   8478.6   8485.5   8492.3   8499.1   8505.8   8512.5   8519.2

 TRANSPORT PROPERTIES (GASES ONLY)
   CONDUCTIVITY IN UNITS OF MILLIWATTS/(CM)(K)

 VISC,MILLIPOISE  0.56772  0.56861  0.56949  0.57037  0.57126  0.57214  0.57303  0.57391

  WITH EQUILIBRIUM REACTIONS

 Cp, KJ/(KG)(K)   21.1481  21.1580  21.1682  21.1788  21.1897  21.2009  21.2125  21.2245
 CONDUCTIVITY     17.7369  17.7646  17.7925  17.8205  17.8486  17.8768  17.9051  17.9336
 PRANDTL NUMBER    0.6769   0.6772   0.6775   0.6779   0.6782   0.6785   0.6789   0.6792

  WITH FROZEN REACTIONS

 Cp, KJ/(KG)(K)   20.6246  20.6246  20.6247  20.6248  20.6249  20.6249  20.6250  20.6251
 CONDUCTIVITY     17.5748  17.6027  17.6305  17.6584  17.6863  17.7142  17.7421  17.7701
 PRANDTL NUMBER    0.6662   0.6662   0.6662   0.6662   0.6662   0.6662   0.6661   0.6661

 MOLE FRACTIONS

 *e-              0.00010  0.00010  0.00011  0.00011  0.00011  0.00012  0.00012  0.00012
 *H               0.99970  0.99970  0.99969  0.99969  0.99968  0.99968  0.99967  0.99967
 *H+              0.00010  0.00010  0.00011  0.00011  0.00011  0.00012  0.00012  0.00012
 *H2              0.00010  0.00009  0.00009  0.00009  0.00009  0.00009  0.00009  0.00008

  * THERMODYNAMIC PROPERTIES FITTED TO 20000.K

 NOTE. WEIGHT FRACTION OF FUEL IN TOTAL FUELS AND OF OXIDANT IN TOTAL OXIDANTS









               THERMODYNAMIC EQUILIBRIUM PROPERTIES AT ASSIGNED

                           TEMPERATURE AND PRESSURE

 CASE =                

             REACTANT                    WT FRACTION      ENERGY      TEMP
                                          (SEE NOTE)     KJ/KG-MOL      K  
             H2                           1.0000000         0.000      0.000

 O/F=    0.00000  %FUEL=100.000000  R,EQ.RATIO= 0.000000  PHI,EQ.RATIO= 0.000000

 THERMODYNAMIC PROPERTIES

 P, BAR           0.00740  0.00740  0.00740  0.00825  0.00825  0.00825  0.00825  0.00825
 T, K             5370.00  5380.00  5390.00  5250.00  5260.00  5270.00  5280.00  5290.00
 RHO, KG/CU M    1.6705-5 1.6673-5 1.6642-5 1.9051-5 1.9014-5 1.8978-5 1.8942-5 1.8906-5
 H, KJ/KG        321019.0 321231.4 321444.0 318466.4 318677.5 318888.6 319099.8 319311.2
 U, KJ/KG        276719.8 276849.5 276979.3 275160.5 275288.9 275417.3 275545.8 275674.4
 G, KJ/KG       -827812.0-829951.5-832091.5-797459.6-799585.4-801711.6-803838.2-805965.1
 S, KJ/(KG)(K)   213.9350 213.9745 214.0140 212.5573 212.5975 212.6376 212.6777 212.7176

 M, (1/n)           1.008    1.008    1.008    1.008    1.008    1.008    1.008    1.008
 (dLV/dLP)t      -1.00015 -1.00015 -1.00015 -1.00016 -1.00016 -1.00016 -1.00016 -1.00015
 (dLV/dLT)p        1.0029   1.0029   1.0030   1.0026   1.0026   1.0026   1.0027   1.0027
 Cp, KJ/(KG)(K)   21.2368  21.2495  21.2625  21.1024  21.1101  21.1182  21.1265  21.1352
 GAMMAs            1.6409   1.6403   1.6398   1.6469   1.6465   1.6461   1.6458   1.6454
 SON VEL,M/SEC     8525.8   8532.3   8538.8   8445.0   8452.2   8459.3   8466.4   8473.4

 TRANSPORT PROPERTIES (GASES ONLY)
   CONDUCTIVITY IN UNITS OF MILLIWATTS/(CM)(K)

 VISC,MILLIPOISE  0.57480  0.57568  0.57657  0.56423  0.56511  0.56600  0.56688  0.56776

  WITH EQUILIBRIUM REACTIONS

 Cp, KJ/(KG)(K)   21.2368  21.2495  21.2625  21.1024  21.1101  21.1182  21.1265  21.1352
 CONDUCTIVITY     17.9622  17.9909  18.0197  17.6360  17.6629  17.6899  17.7171  17.7444
 PRANDTL NUMBER    0.6796   0.6800   0.6803   0.6751   0.6754   0.6757   0.6760   0.6763

  WITH FROZEN REACTIONS

 Cp, KJ/(KG)(K)   20.6252  20.6252  20.6253  20.6242  20.6243  20.6243  20.6244  20.6245
 CONDUCTIVITY     17.7980  17.8260  17.8540  17.4641  17.4919  17.5196  17.5474  17.5752
 PRANDTL NUMBER    0.6661   0.6661   0.6661   0.6663   0.6663   0.6663   0.6663   0.6663

 MOLE FRACTIONS

 *e-              0.00013  0.00013  0.00014  0.00008  0.00009  0.00009  0.00009  0.00010
 *H               0.99966  0.99965  0.99965  0.99971  0.99971  0.99971  0.99970  0.99970
 *H+              0.00013  0.00013  0.00014  0.00008  0.00009  0.00009  0.00009  0.00010
 *H2              0.00008  0.00008  0.00008  0.00012  0.00011  0.00011  0.00011  0.00011

  * THERMODYNAMIC PROPERTIES FITTED TO 20000.K

 NOTE. WEIGHT FRACTION OF FUEL IN TOTAL FUELS AND OF OXIDANT IN TOTAL OXIDANTS









               THERMODYNAMIC EQUILIBRIUM PROPERTIES AT ASSIGNED

                           TEMPERATURE AND PRESSURE

 CASE =                

             REACTANT                    WT FRACTION      ENERGY      TEMP
                                          (SEE NOTE)     KJ/KG-MOL      K  
             H2                           1.0000000         0.000      0.000

 O/F=    0.00000  %FUEL=100.000000  R,EQ.RATIO= 0.000000  PHI,EQ.RATIO= 0.000000

 THERMODYNAMIC PROPERTIES

 P, BAR           0.00825  0.00825  0.00825  0.00825  0.00825  0.00825  0.00825  0.00825
 T, K             5300.00  5310.00  5320.00  5330.00  5340.00  5350.00  5360.00  5370.00
 RHO, KG/CU M    1.8870-5 1.8835-5 1.8799-5 1.8764-5 1.8729-5 1.8693-5 1.8658-5 1.8624-5
 H, KJ/KG        319522.6 319734.0 319945.6 320157.3 320369.1 320580.9 320792.9 321005.1
 U, KJ/KG        275803.1 275931.8 276060.7 276189.7 276318.7 276447.9 276577.2 276706.6
 G, KJ/KG       -808092.5-810220.2-812348.4-814477.0-816605.9-818735.3-820865.1-822995.2
 S, KJ/(KG)(K)   212.7576 212.7974 212.8372 212.8770 212.9167 212.9563 212.9959 213.0354

 M, (1/n)           1.008    1.008    1.008    1.008    1.008    1.008    1.008    1.008
 (dLV/dLP)t      -1.00015 -1.00015 -1.00015 -1.00015 -1.00015 -1.00015 -1.00015 -1.00015
 (dLV/dLT)p        1.0027   1.0027   1.0027   1.0028   1.0028   1.0028   1.0029   1.0029
 Cp, KJ/(KG)(K)   21.1442  21.1536  21.1632  21.1732  21.1836  21.1943  21.2053  21.2167
 GAMMAs            1.6450   1.6445   1.6441   1.6437   1.6432   1.6428   1.6423   1.6418
 SON VEL,M/SEC     8480.4   8487.3   8494.2   8501.1   8507.9   8514.7   8521.4   8528.1

 TRANSPORT PROPERTIES (GASES ONLY)
   CONDUCTIVITY IN UNITS OF MILLIWATTS/(CM)(K)

 VISC,MILLIPOISE  0.56865  0.56953  0.57042  0.57130  0.57219  0.57307  0.57396  0.57485

  WITH EQUILIBRIUM REACTIONS

 Cp, KJ/(KG)(K)   21.1442  21.1536  21.1632  21.1732  21.1836  21.1943  21.2053  21.2167
 CONDUCTIVITY     17.7718  17.7993  17.8270  17.8547  17.8826  17.9107  17.9388  17.9671
 PRANDTL NUMBER    0.6766   0.6769   0.6772   0.6775   0.6778   0.6781   0.6785   0.6788

  WITH FROZEN REACTIONS

 Cp, KJ/(KG)(K)   20.6245  20.6246  20.6247  20.6247  20.6248  20.6249  20.6249  20.6250
 CONDUCTIVITY     17.6030  17.6309  17.6587  17.6866  17.7146  17.7425  17.7705  17.7984
 PRANDTL NUMBER    0.6663   0.6662   0.6662   0.6662   0.6662   0.6662   0.6662   0.6661

 MOLE FRACTIONS

 *e-              0.00010  0.00010  0.00010  0.00011  0.00011  0.00011  0.00012  0.00012
 *H               0.99970  0.99969  0.99969  0.99968  0.99968  0.99968  0.99967  0.99967
 *H+              0.00010  0.00010  0.00010  0.00011  0.00011  0.00011  0.00012  0.00012
 *H2              0.00011  0.00010  0.00010  0.00010  0.00010  0.00010  0.00009  0.00009

  * THERMODYNAMIC PROPERTIES FITTED TO 20000.K

 NOTE. WEIGHT FRACTION OF FUEL IN TOTAL FUELS AND OF OXIDANT IN TOTAL OXIDANTS









               THERMODYNAMIC EQUILIBRIUM PROPERTIES AT ASSIGNED

                           TEMPERATURE AND PRESSURE

 CASE =                

             REACTANT                    WT FRACTION      ENERGY      TEMP
                                          (SEE NOTE)     KJ/KG-MOL      K  
             H2                           1.0000000         0.000      0.000

 O/F=    0.00000  %FUEL=100.000000  R,EQ.RATIO= 0.000000  PHI,EQ.RATIO= 0.000000

 THERMODYNAMIC PROPERTIES

 P, BAR           0.00825  0.00825  0.00910  0.00910  0.00910  0.00910  0.00910  0.00910
 T, K             5380.00  5390.00  5250.00  5260.00  5270.00  5280.00  5290.00  5300.00
 RHO, KG/CU M    1.8589-5 1.8554-5 2.1014-5 2.0974-5 2.0934-5 2.0894-5 2.0854-5 2.0815-5
 H, KJ/KG        321217.3 321429.6 318455.2 318666.1 318877.2 319088.3 319299.6 319510.9
 U, KJ/KG        276836.0 276965.7 275149.9 275278.2 275406.6 275535.0 275663.5 275792.1
 G, KJ/KG       -825125.8-827256.7-793213.0-795330.6-797448.7-799567.2-801686.0-803805.3
 S, KJ/(KG)(K)   213.0749 213.1143 211.7463 211.7865 211.8265 211.8666 211.9065 211.9464

 M, (1/n)           1.008    1.008    1.008    1.008    1.008    1.008    1.008    1.008
 (dLV/dLP)t      -1.00015 -1.00015 -1.00017 -1.00017 -1.00017 -1.00017 -1.00016 -1.00016
 (dLV/dLT)p        1.0029   1.0030   1.0027   1.0027   1.0027   1.0027   1.0027   1.0027
 Cp, KJ/(KG)(K)   21.2284  21.2405  21.0959  21.1029  21.1101  21.1177  21.1256  21.1339
 GAMMAs            1.6413   1.6408   1.6473   1.6469   1.6466   1.6463   1.6459   1.6455
 SON VEL,M/SEC     8534.8   8541.4   8446.0   8453.3   8460.4   8467.6   8474.7   8481.8

 TRANSPORT PROPERTIES (GASES ONLY)
   CONDUCTIVITY IN UNITS OF MILLIWATTS/(CM)(K)

 VISC,MILLIPOISE  0.57573  0.57662  0.56427  0.56515  0.56603  0.56692  0.56780  0.56869

  WITH EQUILIBRIUM REACTIONS

 Cp, KJ/(KG)(K)   21.2284  21.2405  21.0959  21.1029  21.1101  21.1177  21.1256  21.1339
 CONDUCTIVITY     17.9954  18.0239  17.6453  17.6719  17.6986  17.7254  17.7523  17.7794
 PRANDTL NUMBER    0.6792   0.6795   0.6746   0.6749   0.6751   0.6754   0.6757   0.6760

  WITH FROZEN REACTIONS

 Cp, KJ/(KG)(K)   20.6251  20.6252  20.6241  20.6242  20.6243  20.6243  20.6244  20.6244
 CONDUCTIVITY     17.8264  17.8544  17.4645  17.4922  17.5200  17.5477  17.5755  17.6034
 PRANDTL NUMBER    0.6661   0.6661   0.6664   0.6663   0.6663   0.6663   0.6663   0.6663

 MOLE FRACTIONS

 *e-              0.00013  0.00013  0.00008  0.00008  0.00009  0.00009  0.00009  0.00009
 *H               0.99966  0.99965  0.99971  0.99971  0.99971  0.99970  0.99970  0.99970
 *H+              0.00013  0.00013  0.00008  0.00008  0.00009  0.00009  0.00009  0.00009
 *H2              0.00009  0.00009  0.00013  0.00013  0.00012  0.00012  0.00012  0.00012

  * THERMODYNAMIC PROPERTIES FITTED TO 20000.K

 NOTE. WEIGHT FRACTION OF FUEL IN TOTAL FUELS AND OF OXIDANT IN TOTAL OXIDANTS









               THERMODYNAMIC EQUILIBRIUM PROPERTIES AT ASSIGNED

                           TEMPERATURE AND PRESSURE

 CASE =                

             REACTANT                    WT FRACTION      ENERGY      TEMP
                                          (SEE NOTE)     KJ/KG-MOL      K  
             H2                           1.0000000         0.000      0.000

 O/F=    0.00000  %FUEL=100.000000  R,EQ.RATIO= 0.000000  PHI,EQ.RATIO= 0.000000

 THERMODYNAMIC PROPERTIES

 P, BAR           0.00910  0.00910  0.00910  0.00910  0.00910  0.00910  0.00910  0.00910
 T, K             5310.00  5320.00  5330.00  5340.00  5350.00  5360.00  5370.00  5380.00
 RHO, KG/CU M    2.0776-5 2.0736-5 2.0697-5 2.0659-5 2.0620-5 2.0581-5 2.0543-5 2.0504-5
 H, KJ/KG        319722.2 319933.7 320145.3 320356.9 320568.7 320780.5 320992.5 321204.5
 U, KJ/KG        275920.8 276049.5 276178.3 276307.3 276436.3 276565.4 276694.6 276824.0
 G, KJ/KG       -805925.0-808045.0-810165.5-812286.3-814407.6-816529.2-818651.3-820773.7
 S, KJ/(KG)(K)   211.9863 212.0261 212.0658 212.1055 212.1451 212.1847 212.2242 212.2636

 M, (1/n)           1.008    1.008    1.008    1.008    1.008    1.008    1.008    1.008
 (dLV/dLP)t      -1.00016 -1.00016 -1.00016 -1.00016 -1.00016 -1.00016 -1.00016 -1.00016
 (dLV/dLT)p        1.0028   1.0028   1.0028   1.0028   1.0028   1.0029   1.0029   1.0029
 Cp, KJ/(KG)(K)   21.1424  21.1513  21.1605  21.1700  21.1799  21.1901  21.2006  21.2115
 GAMMAs            1.6451   1.6447   1.6443   1.6439   1.6435   1.6430   1.6426   1.6421
 SON VEL,M/SEC     8488.8   8495.8   8502.7   8509.6   8516.5   8523.3   8530.1   8536.8

 TRANSPORT PROPERTIES (GASES ONLY)
   CONDUCTIVITY IN UNITS OF MILLIWATTS/(CM)(K)

 VISC,MILLIPOISE  0.56957  0.57046  0.57134  0.57223  0.57312  0.57400  0.57489  0.57578

  WITH EQUILIBRIUM REACTIONS

 Cp, KJ/(KG)(K)   21.1424  21.1513  21.1605  21.1700  21.1799  21.1901  21.2006  21.2115
 CONDUCTIVITY     17.8066  17.8340  17.8614  17.8890  17.9168  17.9446  17.9726  18.0007
 PRANDTL NUMBER    0.6763   0.6766   0.6769   0.6772   0.6775   0.6778   0.6781   0.6785

  WITH FROZEN REACTIONS

 Cp, KJ/(KG)(K)   20.6245  20.6246  20.6246  20.6247  20.6248  20.6248  20.6249  20.6250
 CONDUCTIVITY     17.6312  17.6591  17.6870  17.7149  17.7428  17.7708  17.7988  17.8268
 PRANDTL NUMBER    0.6663   0.6663   0.6662   0.6662   0.6662   0.6662   0.6662   0.6662

 MOLE FRACTIONS

 *e-              0.00010  0.00010  0.00010  0.00011  0.00011  0.00011  0.00012  0.00012
 *H               0.99969  0.99969  0.99969  0.99968  0.99968  0.99967  0.99967  0.99966
 *H+              0.00010  0.00010  0.00010  0.00011  0.00011  0.00011  0.00012  0.00012
 *H2              0.00011  0.00011  0.00011  0.00011  0.00011  0.00010  0.00010  0.00010

  * THERMODYNAMIC PROPERTIES FITTED TO 20000.K

 NOTE. WEIGHT FRACTION OF FUEL IN TOTAL FUELS AND OF OXIDANT IN TOTAL OXIDANTS









               THERMODYNAMIC EQUILIBRIUM PROPERTIES AT ASSIGNED

                           TEMPERATURE AND PRESSURE

 CASE =                

             REACTANT                    WT FRACTION      ENERGY      TEMP
                                          (SEE NOTE)     KJ/KG-MOL      K  
             H2                           1.0000000         0.000      0.000

 O/F=    0.00000  %FUEL=100.000000  R,EQ.RATIO= 0.000000  PHI,EQ.RATIO= 0.000000

 THERMODYNAMIC PROPERTIES

 P, BAR           0.00910  0.01000  0.01000  0.01000  0.01000  0.01000  0.01000  0.01000
 T, K             5390.00  5250.00  5260.00  5270.00  5280.00  5290.00  5300.00  5310.00
 RHO, KG/CU M    2.0466-5 2.3092-5 2.3048-5 2.3004-5 2.2961-5 2.2917-5 2.2874-5 2.2831-5
 H, KJ/KG        321416.7 318444.1 318655.0 318866.0 319077.1 319288.2 319499.5 319710.8
 U, KJ/KG        276953.4 275139.6 275267.8 275396.1 275524.4 275652.9 275781.4 275910.0
 G, KJ/KG       -822896.6-789128.9-791238.7-793349.0-795459.7-797570.7-799682.2-801794.0
 S, KJ/(KG)(K)   212.3030 210.9663 211.0064 211.0465 211.0865 211.1265 211.1663 211.2062

 M, (1/n)           1.008    1.008    1.008    1.008    1.008    1.008    1.008    1.008
 (dLV/dLP)t      -1.00016 -1.00018 -1.00018 -1.00018 -1.00018 -1.00017 -1.00017 -1.00017
 (dLV/dLT)p        1.0030   1.0028   1.0028   1.0028   1.0028   1.0028   1.0028   1.0028
 Cp, KJ/(KG)(K)   21.2228  21.0915  21.0978  21.1043  21.1112  21.1183  21.1258  21.1336
 GAMMAs            1.6416   1.6476   1.6473   1.6470   1.6467   1.6463   1.6460   1.6456
 SON VEL,M/SEC     8543.5   8446.8   8454.1   8461.4   8468.6   8475.8   8482.9   8490.0

 TRANSPORT PROPERTIES (GASES ONLY)
   CONDUCTIVITY IN UNITS OF MILLIWATTS/(CM)(K)

 VISC,MILLIPOISE  0.57666  0.56430  0.56518  0.56607  0.56695  0.56784  0.56872  0.56961

  WITH EQUILIBRIUM REACTIONS

 Cp, KJ/(KG)(K)   21.2228  21.0915  21.0978  21.1043  21.1112  21.1183  21.1258  21.1336
 CONDUCTIVITY     18.0289  17.6555  17.6817  17.7081  17.7346  17.7612  17.7880  17.8148
 PRANDTL NUMBER    0.6788   0.6741   0.6744   0.6746   0.6749   0.6752   0.6754   0.6757

  WITH FROZEN REACTIONS

 Cp, KJ/(KG)(K)   20.6250  20.6241  20.6241  20.6242  20.6242  20.6243  20.6243  20.6244
 CONDUCTIVITY     17.8548  17.4648  17.4925  17.5203  17.5481  17.5759  17.6037  17.6316
 PRANDTL NUMBER    0.6661   0.6664   0.6664   0.6664   0.6663   0.6663   0.6663   0.6663

 MOLE FRACTIONS

 *e-              0.00012  0.00008  0.00008  0.00008  0.00008  0.00009  0.00009  0.00009
 *H               0.99966  0.99971  0.99970  0.99970  0.99970  0.99970  0.99969  0.99969
 *H+              0.00012  0.00008  0.00008  0.00008  0.00008  0.00009  0.00009  0.00009
 *H2              0.00010  0.00014  0.00014  0.00014  0.00013  0.00013  0.00013  0.00013

  * THERMODYNAMIC PROPERTIES FITTED TO 20000.K

 NOTE. WEIGHT FRACTION OF FUEL IN TOTAL FUELS AND OF OXIDANT IN TOTAL OXIDANTS









               THERMODYNAMIC EQUILIBRIUM PROPERTIES AT ASSIGNED

                           TEMPERATURE AND PRESSURE

 CASE =                

             REACTANT                    WT FRACTION      ENERGY      TEMP
                                          (SEE NOTE)     KJ/KG-MOL      K  
             H2                           1.0000000         0.000      0.000

 O/F=    0.00000  %FUEL=100.000000  R,EQ.RATIO= 0.000000  PHI,EQ.RATIO= 0.000000

 THERMODYNAMIC PROPERTIES

 P, BAR           0.01000  0.01000  0.01000  0.01000  0.01000  0.01000  0.01000  0.01000
 T, K             5320.00  5330.00  5340.00  5350.00  5360.00  5370.00  5380.00  5390.00
 RHO, KG/CU M    2.2788-5 2.2745-5 2.2702-5 2.2659-5 2.2617-5 2.2575-5 2.2533-5 2.2491-5
 H, KJ/KG        319922.1 320133.6 320345.1 320556.8 320768.5 320980.3 321192.2 321404.3
 U, KJ/KG        276038.6 276167.4 276296.2 276425.1 276554.1 276683.2 276812.4 276941.7
 G, KJ/KG       -803906.3-806019.0-808132.0-810245.5-812359.3-814473.6-816588.2-818703.2
 S, KJ/(KG)(K)   211.2459 211.2857 211.3253 211.3649 211.4044 211.4439 211.4834 211.5227

 M, (1/n)           1.008    1.008    1.008    1.008    1.008    1.008    1.008    1.008
 (dLV/dLP)t      -1.00017 -1.00017 -1.00017 -1.00017 -1.00017 -1.00017 -1.00017 -1.00017
 (dLV/dLT)p        1.0028   1.0028   1.0029   1.0029   1.0029   1.0029   1.0029   1.0030
 Cp, KJ/(KG)(K)   21.1417  21.1502  21.1589  21.1680  21.1774  21.1872  21.1972  21.2077
 GAMMAs            1.6453   1.6449   1.6445   1.6441   1.6437   1.6433   1.6428   1.6424
 SON VEL,M/SEC     8497.1   8504.1   8511.1   8518.0   8524.9   8531.8   8538.6   8545.4

 TRANSPORT PROPERTIES (GASES ONLY)
   CONDUCTIVITY IN UNITS OF MILLIWATTS/(CM)(K)

 VISC,MILLIPOISE  0.57049  0.57138  0.57227  0.57316  0.57404  0.57493  0.57582  0.57671

  WITH EQUILIBRIUM REACTIONS

 Cp, KJ/(KG)(K)   21.1417  21.1502  21.1589  21.1680  21.1774  21.1872  21.1972  21.2077
 CONDUCTIVITY     17.8419  17.8690  17.8963  17.9237  17.9513  17.9789  18.0067  18.0346
 PRANDTL NUMBER    0.6760   0.6763   0.6766   0.6769   0.6772   0.6775   0.6778   0.6782

  WITH FROZEN REACTIONS

 Cp, KJ/(KG)(K)   20.6245  20.6245  20.6246  20.6246  20.6247  20.6248  20.6249  20.6249
 CONDUCTIVITY     17.6594  17.6873  17.7153  17.7432  17.7712  17.7991  17.8271  17.8552
 PRANDTL NUMBER    0.6663   0.6663   0.6662   0.6662   0.6662   0.6662   0.6662   0.6662

 MOLE FRACTIONS

 *e-              0.00009  0.00010  0.00010  0.00010  0.00011  0.00011  0.00011  0.00012
 *H               0.99969  0.99968  0.99968  0.99968  0.99967  0.99967  0.99966  0.99966
 *H+              0.00009  0.00010  0.00010  0.00010  0.00011  0.00011  0.00011  0.00012
 *H2              0.00012  0.00012  0.00012  0.00012  0.00011  0.00011  0.00011  0.00011

  * THERMODYNAMIC PROPERTIES FITTED TO 20000.K

 NOTE. WEIGHT FRACTION OF FUEL IN TOTAL FUELS AND OF OXIDANT IN TOTAL OXIDANTS









               THERMODYNAMIC EQUILIBRIUM PROPERTIES AT ASSIGNED

                           TEMPERATURE AND PRESSURE

 CASE =                

             REACTANT                    WT FRACTION      ENERGY      TEMP
                                          (SEE NOTE)     KJ/KG-MOL      K  
             H2                           1.0000000         0.000      0.000

 O/F=    0.00000  %FUEL=100.000000  R,EQ.RATIO= 0.000000  PHI,EQ.RATIO= 0.000000

 THERMODYNAMIC PROPERTIES

 P, BAR           0.01100  0.01100  0.01100  0.01100  0.01100  0.01100  0.01100  0.01100
 T, K             5250.00  5260.00  5270.00  5280.00  5290.00  5300.00  5310.00  5320.00
 RHO, KG/CU M    2.5402-5 2.5354-5 2.5305-5 2.5257-5 2.5209-5 2.5162-5 2.5114-5 2.5067-5
 H, KJ/KG        318432.5 318643.4 318854.4 319065.4 319276.5 319487.7 319698.9 319910.2
 U, KJ/KG        275128.8 275257.0 275385.2 275513.5 275641.9 275770.4 275898.9 276027.4
 G, KJ/KG       -785001.5-787103.5-789205.9-791308.7-793411.9-795515.4-797619.4-799723.8
 S, KJ/(KG)(K)   210.1779 210.2180 210.2581 210.2981 210.3381 210.3779 210.4178 210.4575

 M, (1/n)           1.008    1.008    1.008    1.008    1.008    1.008    1.008    1.008
 (dLV/dLP)t      -1.00019 -1.00019 -1.00019 -1.00019 -1.00018 -1.00018 -1.00018 -1.00018
 (dLV/dLT)p        1.0028   1.0028   1.0028   1.0028   1.0029   1.0029   1.0029   1.0029
 Cp, KJ/(KG)(K)   21.0891  21.0945  21.1003  21.1064  21.1129  21.1196  21.1266  21.1340
 GAMMAs            1.6479   1.6476   1.6473   1.6470   1.6467   1.6464   1.6461   1.6457
 SON VEL,M/SEC     8447.4   8454.8   8462.1   8469.4   8476.7   8483.9   8491.1   8498.2

 TRANSPORT PROPERTIES (GASES ONLY)
   CONDUCTIVITY IN UNITS OF MILLIWATTS/(CM)(K)

 VISC,MILLIPOISE  0.56434  0.56522  0.56610  0.56699  0.56787  0.56876  0.56965  0.57053

  WITH EQUILIBRIUM REACTIONS

 Cp, KJ/(KG)(K)   21.0891  21.0945  21.1003  21.1064  21.1129  21.1196  21.1266  21.1340
 CONDUCTIVITY     17.6673  17.6931  17.7191  17.7452  17.7715  17.7979  17.8244  17.8511
 PRANDTL NUMBER    0.6736   0.6739   0.6741   0.6744   0.6746   0.6749   0.6752   0.6755

  WITH FROZEN REACTIONS

 Cp, KJ/(KG)(K)   20.6240  20.6240  20.6241  20.6241  20.6242  20.6242  20.6243  20.6244
 CONDUCTIVITY     17.4652  17.4929  17.5207  17.5484  17.5762  17.6041  17.6319  17.6598
 PRANDTL NUMBER    0.6664   0.6664   0.6664   0.6664   0.6664   0.6663   0.6663   0.6663

 MOLE FRACTIONS

 *e-              0.00007  0.00008  0.00008  0.00008  0.00008  0.00009  0.00009  0.00009
 *H               0.99970  0.99970  0.99970  0.99969  0.99969  0.99969  0.99969  0.99968
 *H+              0.00007  0.00008  0.00008  0.00008  0.00008  0.00009  0.00009  0.00009
 *H2              0.00016  0.00015  0.00015  0.00015  0.00014  0.00014  0.00014  0.00014

  * THERMODYNAMIC PROPERTIES FITTED TO 20000.K

 NOTE. WEIGHT FRACTION OF FUEL IN TOTAL FUELS AND OF OXIDANT IN TOTAL OXIDANTS









               THERMODYNAMIC EQUILIBRIUM PROPERTIES AT ASSIGNED

                           TEMPERATURE AND PRESSURE

 CASE =                

             REACTANT                    WT FRACTION      ENERGY      TEMP
                                          (SEE NOTE)     KJ/KG-MOL      K  
             H2                           1.0000000         0.000      0.000

 O/F=    0.00000  %FUEL=100.000000  R,EQ.RATIO= 0.000000  PHI,EQ.RATIO= 0.000000

 THERMODYNAMIC PROPERTIES

 P, BAR           0.01100  0.01100  0.01100  0.01100  0.01100  0.01100  0.01100  0.01200
 T, K             5330.00  5340.00  5350.00  5360.00  5370.00  5380.00  5390.00  5250.00
 RHO, KG/CU M    2.5020-5 2.4973-5 2.4926-5 2.4879-5 2.4833-5 2.4786-5 2.4740-5 2.7712-5
 H, KJ/KG        320121.6 320333.1 320544.6 320756.2 320967.9 321179.7 321391.6 318421.6
 U, KJ/KG        276156.1 276284.8 276413.6 276542.5 276671.5 276800.6 276929.7 275118.6
 G, KJ/KG       -801828.6-803933.7-806039.3-808145.3-810251.6-812358.4-814465.5-781233.7
 S, KJ/(KG)(K)   210.4972 210.5369 210.5764 210.6159 210.6554 210.6948 210.7342 209.4581

 M, (1/n)           1.008    1.008    1.008    1.008    1.008    1.008    1.008    1.008
 (dLV/dLP)t      -1.00018 -1.00018 -1.00018 -1.00018 -1.00018 -1.00017 -1.00017 -1.00020
 (dLV/dLT)p        1.0029   1.0029   1.0029   1.0029   1.0030   1.0030   1.0030   1.0029
 Cp, KJ/(KG)(K)   21.1416  21.1496  21.1579  21.1665  21.1755  21.1848  21.1944  21.0886
 GAMMAs            1.6454   1.6450   1.6447   1.6443   1.6439   1.6435   1.6430   1.6481
 SON VEL,M/SEC     8505.3   8512.4   8519.4   8526.4   8533.3   8540.2   8547.1   8447.8

 TRANSPORT PROPERTIES (GASES ONLY)
   CONDUCTIVITY IN UNITS OF MILLIWATTS/(CM)(K)

 VISC,MILLIPOISE  0.57142  0.57231  0.57320  0.57408  0.57497  0.57586  0.57675  0.56437

  WITH EQUILIBRIUM REACTIONS

 Cp, KJ/(KG)(K)   21.1416  21.1496  21.1579  21.1665  21.1755  21.1848  21.1944  21.0886
 CONDUCTIVITY     17.8779  17.9049  17.9319  17.9592  17.9865  18.0140  18.0416  17.6793
 PRANDTL NUMBER    0.6757   0.6760   0.6763   0.6766   0.6769   0.6772   0.6775   0.6732

  WITH FROZEN REACTIONS

 Cp, KJ/(KG)(K)   20.6244  20.6245  20.6245  20.6246  20.6247  20.6247  20.6248  20.6239
 CONDUCTIVITY     17.6877  17.7156  17.7436  17.7715  17.7995  17.8275  17.8555  17.4655
 PRANDTL NUMBER    0.6663   0.6663   0.6663   0.6662   0.6662   0.6662   0.6662   0.6664

 MOLE FRACTIONS

 *e-              0.00009  0.00010  0.00010  0.00010  0.00011  0.00011  0.00011  0.00007
 *H               0.99968  0.99968  0.99967  0.99967  0.99967  0.99966  0.99966  0.99969
 *H+              0.00009  0.00010  0.00010  0.00010  0.00011  0.00011  0.00011  0.00007
 *H2              0.00013  0.00013  0.00013  0.00013  0.00012  0.00012  0.00012  0.00017

  * THERMODYNAMIC PROPERTIES FITTED TO 20000.K

 NOTE. WEIGHT FRACTION OF FUEL IN TOTAL FUELS AND OF OXIDANT IN TOTAL OXIDANTS









               THERMODYNAMIC EQUILIBRIUM PROPERTIES AT ASSIGNED

                           TEMPERATURE AND PRESSURE

 CASE =                

             REACTANT                    WT FRACTION      ENERGY      TEMP
                                          (SEE NOTE)     KJ/KG-MOL      K  
             H2                           1.0000000         0.000      0.000

 O/F=    0.00000  %FUEL=100.000000  R,EQ.RATIO= 0.000000  PHI,EQ.RATIO= 0.000000

 THERMODYNAMIC PROPERTIES

 P, BAR           0.01200  0.01200  0.01200  0.01200  0.01200  0.01200  0.01200  0.01200
 T, K             5260.00  5270.00  5280.00  5290.00  5300.00  5310.00  5320.00  5330.00
 RHO, KG/CU M    2.7659-5 2.7606-5 2.7554-5 2.7502-5 2.7450-5 2.7398-5 2.7346-5 2.7295-5
 H, KJ/KG        318632.5 318843.5 319054.5 319265.5 319476.7 319687.9 319899.1 320110.4
 U, KJ/KG        275246.8 275375.0 275503.3 275631.6 275760.0 275888.5 276017.0 276145.6
 G, KJ/KG       -783328.4-785423.6-787519.2-789615.2-791711.6-793808.3-795905.5-798003.1
 S, KJ/(KG)(K)   209.4983 209.5383 209.5783 209.6183 209.6582 209.6980 209.7377 209.7774

 M, (1/n)           1.008    1.008    1.008    1.008    1.008    1.008    1.008    1.008
 (dLV/dLP)t      -1.00020 -1.00020 -1.00020 -1.00020 -1.00019 -1.00019 -1.00019 -1.00019
 (dLV/dLT)p        1.0029   1.0029   1.0029   1.0029   1.0029   1.0029   1.0029   1.0030
 Cp, KJ/(KG)(K)   21.0934  21.0985  21.1039  21.1096  21.1156  21.1220  21.1286  21.1356
 GAMMAs            1.6478   1.6476   1.6473   1.6470   1.6467   1.6464   1.6461   1.6458
 SON VEL,M/SEC     8455.3   8462.7   8470.0   8477.4   8484.6   8491.9   8499.1   8506.3

 TRANSPORT PROPERTIES (GASES ONLY)
   CONDUCTIVITY IN UNITS OF MILLIWATTS/(CM)(K)

 VISC,MILLIPOISE  0.56525  0.56614  0.56702  0.56791  0.56879  0.56968  0.57057  0.57146

  WITH EQUILIBRIUM REACTIONS

 Cp, KJ/(KG)(K)   21.0934  21.0985  21.1039  21.1096  21.1156  21.1220  21.1286  21.1356
 CONDUCTIVITY     17.7047  17.7304  17.7561  17.7820  17.8081  17.8343  17.8607  17.8871
 PRANDTL NUMBER    0.6734   0.6737   0.6739   0.6742   0.6744   0.6747   0.6750   0.6752

  WITH FROZEN REACTIONS

 Cp, KJ/(KG)(K)   20.6240  20.6240  20.6241  20.6241  20.6242  20.6242  20.6243  20.6243
 CONDUCTIVITY     17.4932  17.5210  17.5488  17.5766  17.6044  17.6323  17.6601  17.6880
 PRANDTL NUMBER    0.6664   0.6664   0.6664   0.6664   0.6664   0.6663   0.6663   0.6663

 MOLE FRACTIONS

 *e-              0.00007  0.00007  0.00008  0.00008  0.00008  0.00008  0.00009  0.00009
 *H               0.99969  0.99969  0.99969  0.99969  0.99968  0.99968  0.99968  0.99968
 *H+              0.00007  0.00007  0.00008  0.00008  0.00008  0.00008  0.00009  0.00009
 *H2              0.00017  0.00016  0.00016  0.00016  0.00015  0.00015  0.00015  0.00014

  * THERMODYNAMIC PROPERTIES FITTED TO 20000.K

 NOTE. WEIGHT FRACTION OF FUEL IN TOTAL FUELS AND OF OXIDANT IN TOTAL OXIDANTS









               THERMODYNAMIC EQUILIBRIUM PROPERTIES AT ASSIGNED

                           TEMPERATURE AND PRESSURE

 CASE =                

             REACTANT                    WT FRACTION      ENERGY      TEMP
                                          (SEE NOTE)     KJ/KG-MOL      K  
             H2                           1.0000000         0.000      0.000

 O/F=    0.00000  %FUEL=100.000000  R,EQ.RATIO= 0.000000  PHI,EQ.RATIO= 0.000000

 THERMODYNAMIC PROPERTIES

 P, BAR           0.01200  0.01200  0.01200  0.01200  0.01200  0.01200  0.01320  0.01320
 T, K             5340.00  5350.00  5360.00  5370.00  5380.00  5390.00  5250.00  5260.00
 RHO, KG/CU M    2.7243-5 2.7192-5 2.7141-5 2.7091-5 2.7040-5 2.6990-5 3.0483-5 3.0425-5
 H, KJ/KG        320321.8 320533.3 320744.8 320956.5 321168.2 321380.0 318409.2 318620.1
 U, KJ/KG        276274.3 276403.0 276531.8 276660.7 276789.7 276918.8 275107.1 275235.2
 G, KJ/KG       -800101.1-802199.4-804298.2-806397.4-808496.9-810596.9-777106.5-779193.4
 S, KJ/(KG)(K)   209.8170 209.8566 209.8961 209.9355 209.9749 210.0143 208.6696 208.7098

 M, (1/n)           1.008    1.008    1.008    1.008    1.008    1.008    1.008    1.008
 (dLV/dLP)t      -1.00019 -1.00019 -1.00019 -1.00018 -1.00018 -1.00018 -1.00022 -1.00022
 (dLV/dLT)p        1.0030   1.0030   1.0030   1.0030   1.0030   1.0030   1.0031   1.0031
 Cp, KJ/(KG)(K)   21.1428  21.1504  21.1583  21.1666  21.1751  21.1840  21.0901  21.0942
 GAMMAs            1.6454   1.6451   1.6447   1.6444   1.6440   1.6436   1.6482   1.6480
 SON VEL,M/SEC     8513.4   8520.5   8527.5   8534.5   8541.5   8548.4   8448.1   8455.6

 TRANSPORT PROPERTIES (GASES ONLY)
   CONDUCTIVITY IN UNITS OF MILLIWATTS/(CM)(K)

 VISC,MILLIPOISE  0.57234  0.57323  0.57412  0.57501  0.57590  0.57679  0.56441  0.56529

  WITH EQUILIBRIUM REACTIONS

 Cp, KJ/(KG)(K)   21.1428  21.1504  21.1583  21.1666  21.1751  21.1840  21.0901  21.0942
 CONDUCTIVITY     17.9138  17.9405  17.9674  17.9945  18.0216  18.0490  17.6940  17.7191
 PRANDTL NUMBER    0.6755   0.6758   0.6761   0.6764   0.6767   0.6770   0.6727   0.6730

  WITH FROZEN REACTIONS

 Cp, KJ/(KG)(K)   20.6244  20.6245  20.6245  20.6246  20.6246  20.6247  20.6238  20.6239
 CONDUCTIVITY     17.7160  17.7439  17.7719  17.7999  17.8279  17.8559  17.4659  17.4937
 PRANDTL NUMBER    0.6663   0.6663   0.6663   0.6663   0.6662   0.6662   0.6665   0.6664

 MOLE FRACTIONS

 *e-              0.00009  0.00009  0.00010  0.00010  0.00010  0.00011  0.00007  0.00007
 *H               0.99967  0.99967  0.99967  0.99966  0.99966  0.99966  0.99968  0.99968
 *H+              0.00009  0.00009  0.00010  0.00010  0.00010  0.00011  0.00007  0.00007
 *H2              0.00014  0.00014  0.00014  0.00013  0.00013  0.00013  0.00019  0.00018

  * THERMODYNAMIC PROPERTIES FITTED TO 20000.K

 NOTE. WEIGHT FRACTION OF FUEL IN TOTAL FUELS AND OF OXIDANT IN TOTAL OXIDANTS









               THERMODYNAMIC EQUILIBRIUM PROPERTIES AT ASSIGNED

                           TEMPERATURE AND PRESSURE

 CASE =                

             REACTANT                    WT FRACTION      ENERGY      TEMP
                                          (SEE NOTE)     KJ/KG-MOL      K  
             H2                           1.0000000         0.000      0.000

 O/F=    0.00000  %FUEL=100.000000  R,EQ.RATIO= 0.000000  PHI,EQ.RATIO= 0.000000

 THERMODYNAMIC PROPERTIES

 P, BAR           0.01320  0.01320  0.01320  0.01320  0.01320  0.01320  0.01320  0.01320
 T, K             5270.00  5280.00  5290.00  5300.00  5310.00  5320.00  5330.00  5340.00
 RHO, KG/CU M    3.0367-5 3.0310-5 3.0252-5 3.0195-5 3.0138-5 3.0081-5 3.0025-5 2.9968-5
 H, KJ/KG        318831.1 319042.1 319253.1 319464.2 319675.4 319886.6 320097.9 320309.2
 U, KJ/KG        275363.5 275491.8 275620.1 275748.4 275876.9 276005.4 276133.9 276262.5
 G, KJ/KG       -781280.7-783368.4-785456.5-787545.0-789633.9-791723.2-793812.8-795902.9
 S, KJ/(KG)(K)   208.7499 208.7899 208.8298 208.8697 208.9095 208.9492 208.9889 209.0285

 M, (1/n)           1.008    1.008    1.008    1.008    1.008    1.008    1.008    1.008
 (dLV/dLP)t      -1.00021 -1.00021 -1.00021 -1.00021 -1.00021 -1.00020 -1.00020 -1.00020
 (dLV/dLT)p        1.0031   1.0030   1.0030   1.0030   1.0030   1.0030   1.0030   1.0030
 Cp, KJ/(KG)(K)   21.0985  21.1031  21.1081  21.1133  21.1189  21.1247  21.1309  21.1374
 GAMMAs            1.6477   1.6475   1.6473   1.6470   1.6467   1.6464   1.6461   1.6458
 SON VEL,M/SEC     8463.1   8470.5   8477.9   8485.3   8492.6   8499.9   8507.1   8514.3

 TRANSPORT PROPERTIES (GASES ONLY)
   CONDUCTIVITY IN UNITS OF MILLIWATTS/(CM)(K)

 VISC,MILLIPOISE  0.56618  0.56706  0.56795  0.56883  0.56972  0.57061  0.57150  0.57238

  WITH EQUILIBRIUM REACTIONS

 Cp, KJ/(KG)(K)   21.0985  21.1031  21.1081  21.1133  21.1189  21.1247  21.1309  21.1374
 CONDUCTIVITY     17.7442  17.7696  17.7951  17.8208  17.8466  17.8725  17.8986  17.9249
 PRANDTL NUMBER    0.6732   0.6734   0.6737   0.6739   0.6742   0.6744   0.6747   0.6750

  WITH FROZEN REACTIONS

 Cp, KJ/(KG)(K)   20.6239  20.6240  20.6240  20.6241  20.6241  20.6242  20.6242  20.6243
 CONDUCTIVITY     17.5214  17.5492  17.5770  17.6048  17.6327  17.6605  17.6884  17.7164
 PRANDTL NUMBER    0.6664   0.6664   0.6664   0.6664   0.6664   0.6664   0.6663   0.6663

 MOLE FRACTIONS

 *e-              0.00007  0.00007  0.00008  0.00008  0.00008  0.00008  0.00009  0.00009
 *H               0.99968  0.99968  0.99968  0.99968  0.99967  0.99967  0.99967  0.99967
 *H+              0.00007  0.00007  0.00008  0.00008  0.00008  0.00008  0.00009  0.00009
 *H2              0.00018  0.00018  0.00017  0.00017  0.00017  0.00016  0.00016  0.00016

  * THERMODYNAMIC PROPERTIES FITTED TO 20000.K

 NOTE. WEIGHT FRACTION OF FUEL IN TOTAL FUELS AND OF OXIDANT IN TOTAL OXIDANTS









               THERMODYNAMIC EQUILIBRIUM PROPERTIES AT ASSIGNED

                           TEMPERATURE AND PRESSURE

 CASE =                

             REACTANT                    WT FRACTION      ENERGY      TEMP
                                          (SEE NOTE)     KJ/KG-MOL      K  
             H2                           1.0000000         0.000      0.000

 O/F=    0.00000  %FUEL=100.000000  R,EQ.RATIO= 0.000000  PHI,EQ.RATIO= 0.000000

 THERMODYNAMIC PROPERTIES

 P, BAR           0.01320  0.01320  0.01320  0.01320  0.01320  0.01480  0.01480  0.01480
 T, K             5350.00  5360.00  5370.00  5380.00  5390.00  5250.00  5260.00  5270.00
 RHO, KG/CU M    2.9912-5 2.9856-5 2.9800-5 2.9745-5 2.9689-5 3.4179-5 3.4114-5 3.4049-5
 H, KJ/KG        320520.6 320732.1 320943.7 321155.3 321367.0 318393.5 318604.5 318815.5
 U, KJ/KG        276391.2 276519.9 276648.7 276777.6 276906.6 275092.5 275220.8 275349.0
 G, KJ/KG       -797993.4-800084.3-802175.6-804267.2-806359.3-772152.3-774229.8-776307.6
 S, KJ/(KG)(K)   209.0680 209.1075 209.1470 209.1863 209.2257 207.7230 207.7632 207.8032

 M, (1/n)           1.008    1.008    1.008    1.008    1.008    1.008    1.008    1.008
 (dLV/dLP)t      -1.00020 -1.00020 -1.00020 -1.00019 -1.00019 -1.00024 -1.00024 -1.00023
 (dLV/dLT)p        1.0030   1.0031   1.0031   1.0031   1.0031   1.0033   1.0032   1.0032
 Cp, KJ/(KG)(K)   21.1442  21.1513  21.1588  21.1665  21.1746  21.0950  21.0980  21.1014
 GAMMAs            1.6455   1.6452   1.6448   1.6445   1.6441   1.6482   1.6481   1.6479
 SON VEL,M/SEC     8521.5   8528.6   8535.7   8542.8   8549.8   8448.1   8455.7   8463.3

 TRANSPORT PROPERTIES (GASES ONLY)
   CONDUCTIVITY IN UNITS OF MILLIWATTS/(CM)(K)

 VISC,MILLIPOISE  0.57327  0.57416  0.57505  0.57594  0.57683  0.56445  0.56534  0.56622

  WITH EQUILIBRIUM REACTIONS

 Cp, KJ/(KG)(K)   21.1442  21.1513  21.1588  21.1665  21.1746  21.0950  21.0980  21.1014
 CONDUCTIVITY     17.9513  17.9778  18.0045  18.0313  18.0583  17.7141  17.7386  17.7632
 PRANDTL NUMBER    0.6752   0.6755   0.6758   0.6761   0.6764   0.6722   0.6724   0.6726

  WITH FROZEN REACTIONS

 Cp, KJ/(KG)(K)   20.6244  20.6244  20.6245  20.6245  20.6246  20.6237  20.6238  20.6238
 CONDUCTIVITY     17.7443  17.7723  17.8003  17.8283  17.8563  17.4665  17.4942  17.5219
 PRANDTL NUMBER    0.6663   0.6663   0.6663   0.6663   0.6663   0.6665   0.6665   0.6665

 MOLE FRACTIONS

 *e-              0.00009  0.00009  0.00010  0.00010  0.00010  0.00006  0.00006  0.00007
 *H               0.99967  0.99966  0.99966  0.99966  0.99965  0.99966  0.99966  0.99966
 *H+              0.00009  0.00009  0.00010  0.00010  0.00010  0.00006  0.00006  0.00007
 *H2              0.00015  0.00015  0.00015  0.00014  0.00014  0.00021  0.00021  0.00020

  * THERMODYNAMIC PROPERTIES FITTED TO 20000.K

 NOTE. WEIGHT FRACTION OF FUEL IN TOTAL FUELS AND OF OXIDANT IN TOTAL OXIDANTS









               THERMODYNAMIC EQUILIBRIUM PROPERTIES AT ASSIGNED

                           TEMPERATURE AND PRESSURE

 CASE =                

             REACTANT                    WT FRACTION      ENERGY      TEMP
                                          (SEE NOTE)     KJ/KG-MOL      K  
             H2                           1.0000000         0.000      0.000

 O/F=    0.00000  %FUEL=100.000000  R,EQ.RATIO= 0.000000  PHI,EQ.RATIO= 0.000000

 THERMODYNAMIC PROPERTIES

 P, BAR           0.01480  0.01480  0.01480  0.01480  0.01480  0.01480  0.01480  0.01480
 T, K             5280.00  5290.00  5300.00  5310.00  5320.00  5330.00  5340.00  5350.00
 RHO, KG/CU M    3.3985-5 3.3920-5 3.3856-5 3.3792-5 3.3728-5 3.3665-5 3.3601-5 3.3538-5
 H, KJ/KG        319026.5 319237.6 319448.7 319659.8 319871.0 320082.3 320293.6 320505.0
 U, KJ/KG        275477.3 275605.6 275734.0 275862.4 275990.9 276119.4 276247.9 276376.6
 G, KJ/KG       -778385.8-780464.5-782543.5-784622.9-786702.7-788783.0-790863.6-792944.6
 S, KJ/(KG)(K)   207.8432 207.8832 207.9231 207.9629 208.0026 208.0423 208.0819 208.1214

 M, (1/n)           1.008    1.008    1.008    1.008    1.008    1.008    1.008    1.008
 (dLV/dLP)t      -1.00023 -1.00023 -1.00023 -1.00022 -1.00022 -1.00022 -1.00022 -1.00021
 (dLV/dLT)p        1.0032   1.0032   1.0032   1.0032   1.0032   1.0032   1.0032   1.0032
 Cp, KJ/(KG)(K)   21.1051  21.1091  21.1134  21.1180  21.1229  21.1282  21.1337  21.1396
 GAMMAs            1.6477   1.6475   1.6472   1.6470   1.6467   1.6465   1.6462   1.6459
 SON VEL,M/SEC     8470.8   8478.3   8485.8   8493.2   8500.6   8507.9   8515.2   8522.4

 TRANSPORT PROPERTIES (GASES ONLY)
   CONDUCTIVITY IN UNITS OF MILLIWATTS/(CM)(K)

 VISC,MILLIPOISE  0.56711  0.56799  0.56888  0.56977  0.57066  0.57154  0.57243  0.57332

  WITH EQUILIBRIUM REACTIONS

 Cp, KJ/(KG)(K)   21.1051  21.1091  21.1134  21.1180  21.1229  21.1282  21.1337  21.1396
 CONDUCTIVITY     17.7880  17.8130  17.8381  17.8634  17.8888  17.9145  17.9402  17.9661
 PRANDTL NUMBER    0.6729   0.6731   0.6733   0.6736   0.6738   0.6741   0.6743   0.6746

  WITH FROZEN REACTIONS

 Cp, KJ/(KG)(K)   20.6239  20.6239  20.6240  20.6240  20.6241  20.6241  20.6242  20.6243
 CONDUCTIVITY     17.5497  17.5775  17.6053  17.6332  17.6611  17.6889  17.7169  17.7448
 PRANDTL NUMBER    0.6664   0.6664   0.6664   0.6664   0.6664   0.6664   0.6664   0.6664

 MOLE FRACTIONS

 *e-              0.00007  0.00007  0.00007  0.00008  0.00008  0.00008  0.00008  0.00009
 *H               0.99966  0.99966  0.99966  0.99966  0.99966  0.99966  0.99966  0.99966
 *H+              0.00007  0.00007  0.00007  0.00008  0.00008  0.00008  0.00008  0.00009
 *H2              0.00020  0.00019  0.00019  0.00019  0.00018  0.00018  0.00018  0.00017

  * THERMODYNAMIC PROPERTIES FITTED TO 20000.K

 NOTE. WEIGHT FRACTION OF FUEL IN TOTAL FUELS AND OF OXIDANT IN TOTAL OXIDANTS









               THERMODYNAMIC EQUILIBRIUM PROPERTIES AT ASSIGNED

                           TEMPERATURE AND PRESSURE

 CASE =                

             REACTANT                    WT FRACTION      ENERGY      TEMP
                                          (SEE NOTE)     KJ/KG-MOL      K  
             H2                           1.0000000         0.000      0.000

 O/F=    0.00000  %FUEL=100.000000  R,EQ.RATIO= 0.000000  PHI,EQ.RATIO= 0.000000

 THERMODYNAMIC PROPERTIES

 P, BAR           0.01480  0.01480  0.01480  0.01480  0.01650  0.01650  0.01650  0.01650
 T, K             5360.00  5370.00  5380.00  5390.00  5250.00  5260.00  5270.00  5280.00
 RHO, KG/CU M    3.3476-5 3.3413-5 3.3351-5 3.3289-5 3.8106-5 3.8034-5 3.7961-5 3.7889-5
 H, KJ/KG        320716.4 320927.9 321139.5 321351.1 318377.7 318588.8 318799.8 319010.9
 U, KJ/KG        276505.2 276634.0 276762.8 276891.7 275077.9 275206.2 275334.5 275462.8
 G, KJ/KG       -795026.0-797107.8-799190.0-801272.6-767444.1-769512.6-771581.4-773650.6
 S, KJ/(KG)(K)   208.1609 208.2003 208.2397 208.2790 206.8232 206.8634 206.9035 206.9435

 M, (1/n)           1.008    1.008    1.008    1.008    1.008    1.008    1.008    1.008
 (dLV/dLP)t      -1.00021 -1.00021 -1.00021 -1.00021 -1.00026 -1.00026 -1.00026 -1.00025
 (dLV/dLT)p        1.0032   1.0032   1.0032   1.0032   1.0035   1.0034   1.0034   1.0034
 Cp, KJ/(KG)(K)   21.1457  21.1522  21.1590  21.1661  21.1028  21.1049  21.1073  21.1101
 GAMMAs            1.6456   1.6453   1.6450   1.6447   1.6482   1.6480   1.6479   1.6477
 SON VEL,M/SEC     8529.7   8536.8   8544.0   8551.1   8447.8   8455.5   8463.2   8470.8

 TRANSPORT PROPERTIES (GASES ONLY)
   CONDUCTIVITY IN UNITS OF MILLIWATTS/(CM)(K)

 VISC,MILLIPOISE  0.57421  0.57510  0.57599  0.57688  0.56450  0.56538  0.56627  0.56715

  WITH EQUILIBRIUM REACTIONS

 Cp, KJ/(KG)(K)   21.1457  21.1522  21.1590  21.1661  21.1028  21.1049  21.1073  21.1101
 CONDUCTIVITY     17.9922  18.0184  18.0448  18.0713  17.7358  17.7597  17.7837  17.8080
 PRANDTL NUMBER    0.6749   0.6751   0.6754   0.6757   0.6717   0.6719   0.6721   0.6723

  WITH FROZEN REACTIONS

 Cp, KJ/(KG)(K)   20.6243  20.6244  20.6244  20.6245  20.6237  20.6237  20.6238  20.6238
 CONDUCTIVITY     17.7728  17.8008  17.8288  17.8568  17.4670  17.4947  17.5225  17.5502
 PRANDTL NUMBER    0.6663   0.6663   0.6663   0.6663   0.6665   0.6665   0.6665   0.6665

 MOLE FRACTIONS

 *e-              0.00009  0.00009  0.00009  0.00010  0.00006  0.00006  0.00006  0.00007
 *H               0.99966  0.99965  0.99965  0.99965  0.99965  0.99965  0.99965  0.99965
 *H+              0.00009  0.00009  0.00009  0.00010  0.00006  0.00006  0.00006  0.00007
 *H2              0.00017  0.00017  0.00016  0.00016  0.00023  0.00023  0.00022  0.00022

  * THERMODYNAMIC PROPERTIES FITTED TO 20000.K

 NOTE. WEIGHT FRACTION OF FUEL IN TOTAL FUELS AND OF OXIDANT IN TOTAL OXIDANTS









               THERMODYNAMIC EQUILIBRIUM PROPERTIES AT ASSIGNED

                           TEMPERATURE AND PRESSURE

 CASE =                

             REACTANT                    WT FRACTION      ENERGY      TEMP
                                          (SEE NOTE)     KJ/KG-MOL      K  
             H2                           1.0000000         0.000      0.000

 O/F=    0.00000  %FUEL=100.000000  R,EQ.RATIO= 0.000000  PHI,EQ.RATIO= 0.000000

 THERMODYNAMIC PROPERTIES

 P, BAR           0.01650  0.01650  0.01650  0.01650  0.01650  0.01650  0.01650  0.01650
 T, K             5290.00  5300.00  5310.00  5320.00  5330.00  5340.00  5350.00  5360.00
 RHO, KG/CU M    3.7817-5 3.7746-5 3.7674-5 3.7603-5 3.7533-5 3.7462-5 3.7392-5 3.7322-5
 H, KJ/KG        319222.0 319433.2 319644.4 319855.6 320066.8 320278.2 320489.5 320700.9
 U, KJ/KG        275591.2 275719.6 275848.0 275976.5 276105.0 276233.6 276362.2 276490.8
 G, KJ/KG       -775720.3-777790.3-779860.7-781931.6-784002.8-786074.4-788146.4-790218.9
 S, KJ/(KG)(K)   206.9834 207.0233 207.0631 207.1028 207.1425 207.1821 207.2217 207.2612

 M, (1/n)           1.008    1.008    1.008    1.008    1.008    1.008    1.008    1.008
 (dLV/dLP)t      -1.00025 -1.00025 -1.00024 -1.00024 -1.00024 -1.00023 -1.00023 -1.00023
 (dLV/dLT)p        1.0034   1.0033   1.0033   1.0033   1.0033   1.0033   1.0033   1.0033
 Cp, KJ/(KG)(K)   21.1132  21.1165  21.1202  21.1242  21.1285  21.1332  21.1381  21.1433
 GAMMAs            1.6475   1.6473   1.6471   1.6469   1.6467   1.6465   1.6462   1.6459
 SON VEL,M/SEC     8478.4   8485.9   8493.4   8500.9   8508.3   8515.7   8523.1   8530.4

 TRANSPORT PROPERTIES (GASES ONLY)
   CONDUCTIVITY IN UNITS OF MILLIWATTS/(CM)(K)

 VISC,MILLIPOISE  0.56804  0.56893  0.56981  0.57070  0.57159  0.57248  0.57337  0.57426

  WITH EQUILIBRIUM REACTIONS

 Cp, KJ/(KG)(K)   21.1132  21.1165  21.1202  21.1242  21.1285  21.1332  21.1381  21.1433
 CONDUCTIVITY     17.8324  17.8570  17.8817  17.9067  17.9318  17.9570  17.9825  18.0080
 PRANDTL NUMBER    0.6725   0.6728   0.6730   0.6732   0.6735   0.6737   0.6740   0.6742

  WITH FROZEN REACTIONS

 Cp, KJ/(KG)(K)   20.6239  20.6239  20.6239  20.6240  20.6240  20.6241  20.6242  20.6242
 CONDUCTIVITY     17.5780  17.6059  17.6337  17.6616  17.6895  17.7174  17.7453  17.7733
 PRANDTL NUMBER    0.6665   0.6665   0.6664   0.6664   0.6664   0.6664   0.6664   0.6664

 MOLE FRACTIONS

 *e-              0.00007  0.00007  0.00007  0.00007  0.00008  0.00008  0.00008  0.00008
 *H               0.99965  0.99965  0.99965  0.99965  0.99965  0.99965  0.99965  0.99965
 *H+              0.00007  0.00007  0.00007  0.00007  0.00008  0.00008  0.00008  0.00008
 *H2              0.00022  0.00021  0.00021  0.00020  0.00020  0.00020  0.00019  0.00019

  * THERMODYNAMIC PROPERTIES FITTED TO 20000.K

 NOTE. WEIGHT FRACTION OF FUEL IN TOTAL FUELS AND OF OXIDANT IN TOTAL OXIDANTS









               THERMODYNAMIC EQUILIBRIUM PROPERTIES AT ASSIGNED

                           TEMPERATURE AND PRESSURE

 CASE =                

             REACTANT                    WT FRACTION      ENERGY      TEMP
                                          (SEE NOTE)     KJ/KG-MOL      K  
             H2                           1.0000000         0.000      0.000

 O/F=    0.00000  %FUEL=100.000000  R,EQ.RATIO= 0.000000  PHI,EQ.RATIO= 0.000000

 THERMODYNAMIC PROPERTIES

 P, BAR           0.01650  0.01650  0.01650  0.01800  0.01800  0.01800  0.01800  0.01800
 T, K             5370.00  5380.00  5390.00  5250.00  5260.00  5270.00  5280.00  5290.00
 RHO, KG/CU M    3.7252-5 3.7183-5 3.7113-5 4.1572-5 4.1492-5 4.1413-5 4.1335-5 4.1256-5
 H, KJ/KG        320912.4 321123.9 321335.5 318364.4 318575.5 318786.6 318997.8 319208.9
 U, KJ/KG        276619.5 276748.3 276877.1 275065.6 275193.9 275322.3 275450.7 275579.1
 G, KJ/KG       -792291.7-794364.9-796438.5-763676.6-765737.8-767799.5-769861.5-771923.9
 S, KJ/(KG)(K)   207.3006 207.3399 207.3792 206.1030 206.1432 206.1833 206.2233 206.2633

 M, (1/n)           1.008    1.008    1.008    1.008    1.008    1.008    1.008    1.008
 (dLV/dLP)t      -1.00023 -1.00022 -1.00022 -1.00028 -1.00028 -1.00027 -1.00027 -1.00027
 (dLV/dLT)p        1.0033   1.0033   1.0033   1.0036   1.0036   1.0036   1.0036   1.0035
 Cp, KJ/(KG)(K)   21.1489  21.1548  21.1610  21.1114  21.1128  21.1144  21.1164  21.1187
 GAMMAs            1.6457   1.6454   1.6451   1.6481   1.6479   1.6478   1.6477   1.6475
 SON VEL,M/SEC     8537.7   8544.9   8552.1   8447.4   8455.2   8462.9   8470.6   8478.3

 TRANSPORT PROPERTIES (GASES ONLY)
   CONDUCTIVITY IN UNITS OF MILLIWATTS/(CM)(K)

 VISC,MILLIPOISE  0.57515  0.57604  0.57693  0.56454  0.56542  0.56631  0.56719  0.56808

  WITH EQUILIBRIUM REACTIONS

 Cp, KJ/(KG)(K)   21.1489  21.1548  21.1610  21.1114  21.1128  21.1144  21.1164  21.1187
 CONDUCTIVITY     18.0338  18.0597  18.0857  17.7552  17.7786  17.8022  17.8259  17.8498
 PRANDTL NUMBER    0.6745   0.6748   0.6750   0.6712   0.6715   0.6717   0.6719   0.6721

  WITH FROZEN REACTIONS

 Cp, KJ/(KG)(K)   20.6243  20.6243  20.6244  20.6236  20.6237  20.6237  20.6237  20.6238
 CONDUCTIVITY     17.8013  17.8293  17.8573  17.4675  17.4952  17.5229  17.5507  17.5785
 PRANDTL NUMBER    0.6664   0.6663   0.6663   0.6665   0.6665   0.6665   0.6665   0.6665

 MOLE FRACTIONS

 *e-              0.00009  0.00009  0.00009  0.00006  0.00006  0.00006  0.00006  0.00006
 *H               0.99964  0.99964  0.99964  0.99963  0.99963  0.99963  0.99963  0.99964
 *H+              0.00009  0.00009  0.00009  0.00006  0.00006  0.00006  0.00006  0.00006
 *H2              0.00018  0.00018  0.00018  0.00025  0.00025  0.00024  0.00024  0.00023

  * THERMODYNAMIC PROPERTIES FITTED TO 20000.K

 NOTE. WEIGHT FRACTION OF FUEL IN TOTAL FUELS AND OF OXIDANT IN TOTAL OXIDANTS









               THERMODYNAMIC EQUILIBRIUM PROPERTIES AT ASSIGNED

                           TEMPERATURE AND PRESSURE

 CASE =                

             REACTANT                    WT FRACTION      ENERGY      TEMP
                                          (SEE NOTE)     KJ/KG-MOL      K  
             H2                           1.0000000         0.000      0.000

 O/F=    0.00000  %FUEL=100.000000  R,EQ.RATIO= 0.000000  PHI,EQ.RATIO= 0.000000

 THERMODYNAMIC PROPERTIES

 P, BAR           0.01800  0.01800  0.01800  0.01800  0.01800  0.01800  0.01800  0.01800
 T, K             5300.00  5310.00  5320.00  5330.00  5340.00  5350.00  5360.00  5370.00
 RHO, KG/CU M    4.1178-5 4.1100-5 4.1023-5 4.0945-5 4.0869-5 4.0792-5 4.0716-5 4.0639-5
 H, KJ/KG        319420.1 319631.4 319842.6 320053.9 320265.3 320476.6 320688.0 320899.5
 U, KJ/KG        275707.5 275836.0 275964.5 276093.0 276221.6 276350.2 276478.9 276607.5
 G, KJ/KG       -773986.8-776050.0-778113.6-780177.7-782242.1-784306.9-786372.1-788437.7
 S, KJ/(KG)(K)   206.3032 206.3430 206.3828 206.4224 206.4620 206.5016 206.5411 206.5805

 M, (1/n)           1.008    1.008    1.008    1.008    1.008    1.008    1.008    1.008
 (dLV/dLP)t      -1.00026 -1.00026 -1.00026 -1.00025 -1.00025 -1.00025 -1.00024 -1.00024
 (dLV/dLT)p        1.0035   1.0035   1.0035   1.0034   1.0034   1.0034   1.0034   1.0034
 Cp, KJ/(KG)(K)   21.1213  21.1243  21.1275  21.1311  21.1349  21.1391  21.1436  21.1484
 GAMMAs            1.6474   1.6472   1.6470   1.6468   1.6466   1.6464   1.6461   1.6459
 SON VEL,M/SEC     8485.9   8493.5   8501.0   8508.5   8516.0   8523.4   8530.8   8538.1

 TRANSPORT PROPERTIES (GASES ONLY)
   CONDUCTIVITY IN UNITS OF MILLIWATTS/(CM)(K)

 VISC,MILLIPOISE  0.56897  0.56985  0.57074  0.57163  0.57252  0.57341  0.57430  0.57519

  WITH EQUILIBRIUM REACTIONS

 Cp, KJ/(KG)(K)   21.1213  21.1243  21.1275  21.1311  21.1349  21.1391  21.1436  21.1484
 CONDUCTIVITY     17.8740  17.8983  17.9227  17.9474  17.9722  17.9972  18.0224  18.0477
 PRANDTL NUMBER    0.6723   0.6726   0.6728   0.6730   0.6733   0.6735   0.6738   0.6740

  WITH FROZEN REACTIONS

 Cp, KJ/(KG)(K)   20.6238  20.6239  20.6239  20.6240  20.6240  20.6241  20.6241  20.6242
 CONDUCTIVITY     17.6063  17.6342  17.6620  17.6899  17.7178  17.7458  17.7737  17.8017
 PRANDTL NUMBER    0.6665   0.6665   0.6665   0.6664   0.6664   0.6664   0.6664   0.6664

 MOLE FRACTIONS

 *e-              0.00007  0.00007  0.00007  0.00007  0.00008  0.00008  0.00008  0.00008
 *H               0.99964  0.99964  0.99964  0.99964  0.99964  0.99964  0.99964  0.99963
 *H+              0.00007  0.00007  0.00007  0.00007  0.00008  0.00008  0.00008  0.00008
 *H2              0.00023  0.00023  0.00022  0.00022  0.00021  0.00021  0.00020  0.00020

  * THERMODYNAMIC PROPERTIES FITTED TO 20000.K

 NOTE. WEIGHT FRACTION OF FUEL IN TOTAL FUELS AND OF OXIDANT IN TOTAL OXIDANTS









               THERMODYNAMIC EQUILIBRIUM PROPERTIES AT ASSIGNED

                           TEMPERATURE AND PRESSURE

 CASE =                

             REACTANT                    WT FRACTION      ENERGY      TEMP
                                          (SEE NOTE)     KJ/KG-MOL      K  
             H2                           1.0000000         0.000      0.000

 O/F=    0.00000  %FUEL=100.000000  R,EQ.RATIO= 0.000000  PHI,EQ.RATIO= 0.000000

 THERMODYNAMIC PROPERTIES

 P, BAR           0.01800  0.01800  0.02000  0.02000  0.02000  0.02000  0.02000  0.02000
 T, K             5380.00  5390.00  5250.00  5260.00  5270.00  5280.00  5290.00  5300.00
 RHO, KG/CU M    4.0564-5 4.0488-5 4.6192-5 4.6104-5 4.6016-5 4.5929-5 4.5842-5 4.5755-5
 H, KJ/KG        321111.0 321322.6 318347.2 318558.4 318769.7 318981.0 319192.2 319403.5
 U, KJ/KG        276736.3 276865.1 275049.8 275178.2 275306.7 275435.2 275563.7 275692.2
 G, KJ/KG       -790503.7-792570.1-759114.7-761167.2-763220.1-765273.4-767327.1-769381.3
 S, KJ/(KG)(K)   206.6198 206.6591 205.2308 205.2710 205.3112 205.3512 205.3912 205.4311

 M, (1/n)           1.008    1.008    1.008    1.008    1.008    1.008    1.008    1.008
 (dLV/dLP)t      -1.00024 -1.00024 -1.00031 -1.00031 -1.00030 -1.00030 -1.00029 -1.00029
 (dLV/dLT)p        1.0034   1.0034   1.0039   1.0039   1.0038   1.0038   1.0037   1.0037
 Cp, KJ/(KG)(K)   21.1535  21.1590  21.1249  21.1253  21.1260  21.1270  21.1283  21.1300
 GAMMAs            1.6456   1.6454   1.6478   1.6477   1.6476   1.6475   1.6474   1.6473
 SON VEL,M/SEC     8545.4   8552.7   8446.7   8454.5   8462.3   8470.1   8477.9   8485.6

 TRANSPORT PROPERTIES (GASES ONLY)
   CONDUCTIVITY IN UNITS OF MILLIWATTS/(CM)(K)

 VISC,MILLIPOISE  0.57608  0.57697  0.56459  0.56547  0.56636  0.56724  0.56813  0.56901

  WITH EQUILIBRIUM REACTIONS

 Cp, KJ/(KG)(K)   21.1535  21.1590  21.1249  21.1253  21.1260  21.1270  21.1283  21.1300
 CONDUCTIVITY     18.0732  18.0988  17.7814  17.8041  17.8270  17.8501  17.8734  17.8969
 PRANDTL NUMBER    0.6743   0.6745   0.6707   0.6710   0.6712   0.6714   0.6716   0.6718

  WITH FROZEN REACTIONS

 Cp, KJ/(KG)(K)   20.6242  20.6243  20.6235  20.6236  20.6236  20.6237  20.6237  20.6238
 CONDUCTIVITY     17.8297  17.8578  17.4681  17.4958  17.5236  17.5513  17.5791  17.6069
 PRANDTL NUMBER    0.6664   0.6664   0.6666   0.6666   0.6665   0.6665   0.6665   0.6665

 MOLE FRACTIONS

 *e-              0.00008  0.00009  0.00005  0.00006  0.00006  0.00006  0.00006  0.00006
 *H               0.99963  0.99963  0.99961  0.99961  0.99961  0.99961  0.99962  0.99962
 *H+              0.00008  0.00009  0.00005  0.00006  0.00006  0.00006  0.00006  0.00006
 *H2              0.00020  0.00019  0.00028  0.00028  0.00027  0.00027  0.00026  0.00026

  * THERMODYNAMIC PROPERTIES FITTED TO 20000.K

 NOTE. WEIGHT FRACTION OF FUEL IN TOTAL FUELS AND OF OXIDANT IN TOTAL OXIDANTS









               THERMODYNAMIC EQUILIBRIUM PROPERTIES AT ASSIGNED

                           TEMPERATURE AND PRESSURE

 CASE =                

             REACTANT                    WT FRACTION      ENERGY      TEMP
                                          (SEE NOTE)     KJ/KG-MOL      K  
             H2                           1.0000000         0.000      0.000

 O/F=    0.00000  %FUEL=100.000000  R,EQ.RATIO= 0.000000  PHI,EQ.RATIO= 0.000000

 THERMODYNAMIC PROPERTIES

 P, BAR           0.02000  0.02000  0.02000  0.02000  0.02000  0.02000  0.02000  0.02000
 T, K             5310.00  5320.00  5330.00  5340.00  5350.00  5360.00  5370.00  5380.00
 RHO, KG/CU M    4.5668-5 4.5582-5 4.5496-5 4.5411-5 4.5326-5 4.5241-5 4.5156-5 4.5072-5
 H, KJ/KG        319614.8 319826.2 320037.5 320248.9 320460.3 320671.8 320883.3 321094.8
 U, KJ/KG        275820.7 275949.3 276077.8 276206.5 276335.1 276463.8 276592.5 276721.2
 G, KJ/KG       -771435.8-773490.7-775546.0-777601.7-779657.8-781714.3-783771.2-785828.4
 S, KJ/(KG)(K)   205.4709 205.5107 205.5504 205.5900 205.6296 205.6690 205.7085 205.7478

 M, (1/n)           1.008    1.008    1.008    1.008    1.008    1.008    1.008    1.008
 (dLV/dLP)t      -1.00028 -1.00028 -1.00028 -1.00027 -1.00027 -1.00027 -1.00026 -1.00026
 (dLV/dLT)p        1.0037   1.0037   1.0036   1.0036   1.0036   1.0036   1.0036   1.0036
 Cp, KJ/(KG)(K)   21.1320  21.1343  21.1369  21.1398  21.1431  21.1467  21.1505  21.1547
 GAMMAs            1.6471   1.6470   1.6468   1.6466   1.6465   1.6463   1.6460   1.6458
 SON VEL,M/SEC     8493.2   8500.9   8508.4   8516.0   8523.5   8531.0   8538.4   8545.8

 TRANSPORT PROPERTIES (GASES ONLY)
   CONDUCTIVITY IN UNITS OF MILLIWATTS/(CM)(K)

 VISC,MILLIPOISE  0.56990  0.57079  0.57168  0.57257  0.57346  0.57435  0.57524  0.57613

  WITH EQUILIBRIUM REACTIONS

 Cp, KJ/(KG)(K)   21.1320  21.1343  21.1369  21.1398  21.1431  21.1467  21.1505  21.1547
 CONDUCTIVITY     17.9206  17.9445  17.9686  17.9928  18.0173  18.0419  18.0666  18.0916
 PRANDTL NUMBER    0.6720   0.6723   0.6725   0.6727   0.6729   0.6732   0.6734   0.6737

  WITH FROZEN REACTIONS

 Cp, KJ/(KG)(K)   20.6238  20.6238  20.6239  20.6239  20.6240  20.6240  20.6241  20.6241
 CONDUCTIVITY     17.6348  17.6626  17.6905  17.7184  17.7463  17.7743  17.8023  17.8303
 PRANDTL NUMBER    0.6665   0.6665   0.6665   0.6665   0.6664   0.6664   0.6664   0.6664

 MOLE FRACTIONS

 *e-              0.00007  0.00007  0.00007  0.00007  0.00007  0.00008  0.00008  0.00008
 *H               0.99962  0.99962  0.99962  0.99962  0.99962  0.99962  0.99962  0.99962
 *H+              0.00007  0.00007  0.00007  0.00007  0.00007  0.00008  0.00008  0.00008
 *H2              0.00025  0.00025  0.00024  0.00024  0.00023  0.00023  0.00022  0.00022

  * THERMODYNAMIC PROPERTIES FITTED TO 20000.K

 NOTE. WEIGHT FRACTION OF FUEL IN TOTAL FUELS AND OF OXIDANT IN TOTAL OXIDANTS









               THERMODYNAMIC EQUILIBRIUM PROPERTIES AT ASSIGNED

                           TEMPERATURE AND PRESSURE

 CASE =                

             REACTANT                    WT FRACTION      ENERGY      TEMP
                                          (SEE NOTE)     KJ/KG-MOL      K  
             H2                           1.0000000         0.000      0.000

 O/F=    0.00000  %FUEL=100.000000  R,EQ.RATIO= 0.000000  PHI,EQ.RATIO= 0.000000

 THERMODYNAMIC PROPERTIES

 P, BAR           0.02000
 T, K             5390.00
 RHO, KG/CU M    4.4988-5
 H, KJ/KG        321306.4
 U, KJ/KG        276850.0
 G, KJ/KG       -787886.1
 S, KJ/(KG)(K)   205.7871

 M, (1/n)           1.008
 (dLV/dLP)t      -1.00026
 (dLV/dLT)p        1.0035
 Cp, KJ/(KG)(K)   21.1593
 GAMMAs            1.6456
 SON VEL,M/SEC     8553.2

 TRANSPORT PROPERTIES (GASES ONLY)
   CONDUCTIVITY IN UNITS OF MILLIWATTS/(CM)(K)

 VISC,MILLIPOISE  0.57702

  WITH EQUILIBRIUM REACTIONS

 Cp, KJ/(KG)(K)   21.1593
 CONDUCTIVITY     18.1167
 PRANDTL NUMBER    0.6739

  WITH FROZEN REACTIONS

 Cp, KJ/(KG)(K)   20.6242
 CONDUCTIVITY     17.8583
 PRANDTL NUMBER    0.6664

 MOLE FRACTIONS

 *e-              0.00008
 *H               0.99962
 *H+              0.00008
 *H2              0.00021

  * THERMODYNAMIC PROPERTIES FITTED TO 20000.K

 NOTE. WEIGHT FRACTION OF FUEL IN TOTAL FUELS AND OF OXIDANT IN TOTAL OXIDANTS



  
