
 *******************************************************************************

         NASA-GLENN CHEMICAL EQUILIBRIUM PROGRAM CEA2, MAY 21, 2004
                   BY  BONNIE MCBRIDE AND SANFORD GORDON
      REFS: NASA RP-1311, PART I, 1994 AND NASA RP-1311, PART II, 1996

 *******************************************************************************



  prob tp ions
  p,bar= 2.5,2.8,3.1,3.5,3.9,4.4,4.9,5.4,6.0,6.7,7.4,8.25,9.1,10.0,11.0
  t,k= 3300,3310,3320,3330,3340,3350,3360,3370,3380,3390,3400,3410,3420,3430,3440
  
  reac
  na H2                wt%=100.0000
  
  output short
  output siunits
  output transport
  
 end





               THERMODYNAMIC EQUILIBRIUM PROPERTIES AT ASSIGNED

                           TEMPERATURE AND PRESSURE

 CASE =                

             REACTANT                    WT FRACTION      ENERGY      TEMP
                                          (SEE NOTE)     KJ/KG-MOL      K  
             H2                           1.0000000         0.000      0.000

 O/F=    0.00000  %FUEL=100.000000  R,EQ.RATIO= 0.000000  PHI,EQ.RATIO= 0.000000

 THERMODYNAMIC PROPERTIES

 P, BAR            2.5000   2.5000   2.5000   2.5000   2.5000   2.5000   2.5000   2.5000
 T, K             3300.00  3310.00  3320.00  3330.00  3340.00  3350.00  3360.00  3370.00
 RHO, KG/CU M    1.6474-2 1.6382-2 1.6289-2 1.6197-2 1.6104-2 1.6012-2 1.5919-2 1.5827-2
 H, KJ/KG         75854.8  76709.9  77577.7  78458.1  79351.2  80257.0  81175.8  82107.5
 U, KJ/KG         60679.7  61449.1  62230.2  63022.8  63827.2  64643.3  65471.3  66311.3
 G, KJ/KG       -279052.7-280128.3-281207.6-282289.6-283374.3-284461.6-285551.7-286644.5
 S, KJ/(KG)(K)   107.5477 107.8061 108.0679 108.3326 108.6004 108.8712 109.1451 109.4220

 M, (1/n)           1.808    1.803    1.799    1.794    1.789    1.784    1.779    1.774
 (dLV/dLP)t      -1.05085 -1.05197 -1.05310 -1.05425 -1.05540 -1.05656 -1.05773 -1.05892
 (dLV/dLT)p        1.8542   1.8704   1.8867   1.9031   1.9196   1.9362   1.9528   1.9696
 Cp, KJ/(KG)(K)   84.9084  86.1519  87.4061  88.6706  89.9451  91.2293  92.5229  93.8255
 GAMMAs            1.1565   1.1564   1.1563   1.1562   1.1561   1.1560   1.1560   1.1559
 SON VEL,M/SEC     4189.3   4200.9   4212.6   4224.4   4236.4   4248.5   4260.7   4273.1

 TRANSPORT PROPERTIES (GASES ONLY)
   CONDUCTIVITY IN UNITS OF MILLIWATTS/(CM)(K)

 VISC,MILLIPOISE  0.53989  0.54200  0.54411  0.54621  0.54832  0.55042  0.55252  0.55462

  WITH EQUILIBRIUM REACTIONS

 Cp, KJ/(KG)(K)   84.9084  86.1519  87.4061  88.6706  89.9451  91.2293  92.5229  93.8255
 CONDUCTIVITY     97.1454  98.7463 100.3568 101.9756 103.6020 105.2355 106.8752 108.5206
 PRANDTL NUMBER    0.4719   0.4729   0.4739   0.4749   0.4760   0.4772   0.4783   0.4795

  WITH FROZEN REACTIONS

 Cp, KJ/(KG)(K)   18.9348  18.9494  18.9640  18.9787  18.9934  19.0081  19.0228  19.0376
 CONDUCTIVITY     14.7044  14.7699  14.8359  14.9017  14.9674  15.0328  15.0979  15.1627
 PRANDTL NUMBER    0.6952   0.6954   0.6955   0.6957   0.6958   0.6960   0.6962   0.6963

 MOLE FRACTIONS

 *H               0.20615  0.21083  0.21556  0.22036  0.22522  0.23013  0.23511  0.24014
 *H2              0.79384  0.78917  0.78444  0.77964  0.77478  0.76987  0.76489  0.75986

  * THERMODYNAMIC PROPERTIES FITTED TO 20000.K

 NOTE. WEIGHT FRACTION OF FUEL IN TOTAL FUELS AND OF OXIDANT IN TOTAL OXIDANTS









               THERMODYNAMIC EQUILIBRIUM PROPERTIES AT ASSIGNED

                           TEMPERATURE AND PRESSURE

 CASE =                

             REACTANT                    WT FRACTION      ENERGY      TEMP
                                          (SEE NOTE)     KJ/KG-MOL      K  
             H2                           1.0000000         0.000      0.000

 O/F=    0.00000  %FUEL=100.000000  R,EQ.RATIO= 0.000000  PHI,EQ.RATIO= 0.000000

 THERMODYNAMIC PROPERTIES

 P, BAR            2.5000   2.5000   2.5000   2.5000   2.5000   2.5000   2.5000   2.8000
 T, K             3380.00  3390.00  3400.00  3410.00  3420.00  3430.00  3440.00  3300.00
 RHO, KG/CU M    1.5734-2 1.5642-2 1.5549-2 1.5457-2 1.5365-2 1.5272-2 1.5180-2 1.8555-2
 H, KJ/KG         83052.3  84010.3  84981.5  85966.0  86963.8  87975.2  89000.0  74424.9
 U, KJ/KG         67163.2  68027.3  68903.5  69791.9  70692.6  71605.6  72531.1  59335.0
 G, KJ/KG       -287740.1-288838.6-289939.8-291044.0-292151.1-293261.1-294374.0-277336.6
 S, KJ/(KG)(K)   109.7019 109.9849 110.2710 110.5601 110.8523 111.1476 111.4459 106.5944

 M, (1/n)           1.769    1.764    1.758    1.753    1.748    1.742    1.737    1.818
 (dLV/dLP)t      -1.06011 -1.06131 -1.06253 -1.06375 -1.06497 -1.06621 -1.06745 -1.04843
 (dLV/dLT)p        1.9864   2.0032   2.0201   2.0370   2.0540   2.0710   2.0880   1.8134
 Cp, KJ/(KG)(K)   95.1366  96.4560  97.7832  99.1177 100.4591 101.8069 103.1606  81.3946
 GAMMAs            1.1559   1.1558   1.1558   1.1558   1.1558   1.1559   1.1559   1.1578
 SON VEL,M/SEC     4285.5   4298.1   4310.9   4323.7   4336.7   4349.8   4363.1   4179.9

 TRANSPORT PROPERTIES (GASES ONLY)
   CONDUCTIVITY IN UNITS OF MILLIWATTS/(CM)(K)

 VISC,MILLIPOISE  0.55671  0.55879  0.56087  0.56294  0.56501  0.56706  0.56911  0.53817

  WITH EQUILIBRIUM REACTIONS

 Cp, KJ/(KG)(K)   95.1366  96.4560  97.7832  99.1177 100.4591 101.8069 103.1606  81.3946
 CONDUCTIVITY    110.1708 111.8251 113.4828 115.1431 116.8050 118.4678 120.1306  93.1562
 PRANDTL NUMBER    0.4807   0.4820   0.4833   0.4846   0.4859   0.4873   0.4887   0.4702

  WITH FROZEN REACTIONS

 Cp, KJ/(KG)(K)   19.0523  19.0671  19.0819  19.0967  19.1116  19.1264  19.1413  18.9228
 CONDUCTIVITY     15.2273  15.2915  15.3553  15.4187  15.4817  15.5442  15.6063  14.6507
 PRANDTL NUMBER    0.6966   0.6968   0.6970   0.6972   0.6975   0.6977   0.6980   0.6951

 MOLE FRACTIONS

 *H               0.24523  0.25038  0.25559  0.26085  0.26617  0.27154  0.27696  0.19603
 *H2              0.75477  0.74962  0.74441  0.73915  0.73383  0.72846  0.72304  0.80397

  * THERMODYNAMIC PROPERTIES FITTED TO 20000.K

 NOTE. WEIGHT FRACTION OF FUEL IN TOTAL FUELS AND OF OXIDANT IN TOTAL OXIDANTS









               THERMODYNAMIC EQUILIBRIUM PROPERTIES AT ASSIGNED

                           TEMPERATURE AND PRESSURE

 CASE =                

             REACTANT                    WT FRACTION      ENERGY      TEMP
                                          (SEE NOTE)     KJ/KG-MOL      K  
             H2                           1.0000000         0.000      0.000

 O/F=    0.00000  %FUEL=100.000000  R,EQ.RATIO= 0.000000  PHI,EQ.RATIO= 0.000000

 THERMODYNAMIC PROPERTIES

 P, BAR            2.8000   2.8000   2.8000   2.8000   2.8000   2.8000   2.8000   2.8000
 T, K             3310.00  3320.00  3330.00  3340.00  3350.00  3360.00  3370.00  3380.00
 RHO, KG/CU M    1.8453-2 1.8351-2 1.8249-2 1.8148-2 1.8046-2 1.7944-2 1.7842-2 1.7740-2
 H, KJ/KG         75244.8  76076.6  76920.3  77776.2  78644.3  79524.7  80417.5  81322.8
 U, KJ/KG         60071.5  60818.9  61577.4  62347.1  63128.1  63920.3  64724.0  65539.1
 G, KJ/KG       -278403.7-279473.4-280545.6-281620.4-282697.7-283777.6-284860.2-285945.5
 S, KJ/(KG)(K)   106.8425 107.0934 107.3471 107.6038 107.8633 108.1257 108.3910 108.6593

 M, (1/n)           1.814    1.809    1.805    1.800    1.795    1.790    1.785    1.781
 (dLV/dLP)t      -1.04951 -1.05059 -1.05169 -1.05280 -1.05393 -1.05506 -1.05620 -1.05736
 (dLV/dLT)p        1.8290   1.8448   1.8606   1.8765   1.8926   1.9087   1.9249   1.9412
 Cp, KJ/(KG)(K)   82.5796  83.7753  84.9813  86.1975  87.4235  88.6591  89.9039  91.1577
 GAMMAs            1.1577   1.1575   1.1574   1.1573   1.1572   1.1571   1.1570   1.1570
 SON VEL,M/SEC     4191.2   4202.5   4214.0   4225.6   4237.4   4249.2   4261.2   4273.3

 TRANSPORT PROPERTIES (GASES ONLY)
   CONDUCTIVITY IN UNITS OF MILLIWATTS/(CM)(K)

 VISC,MILLIPOISE  0.54027  0.54237  0.54447  0.54658  0.54868  0.55078  0.55288  0.55497

  WITH EQUILIBRIUM REACTIONS

 Cp, KJ/(KG)(K)   82.5796  83.7753  84.9813  86.1975  87.4235  88.6591  89.9039  91.1577
 CONDUCTIVITY     94.7032  96.2599  97.8259  99.4005 100.9831 102.5731 104.1700 105.7730
 PRANDTL NUMBER    0.4711   0.4720   0.4730   0.4740   0.4750   0.4761   0.4772   0.4783

  WITH FROZEN REACTIONS

 Cp, KJ/(KG)(K)   18.9372  18.9516  18.9661  18.9805  18.9950  19.0095  19.0240  19.0385
 CONDUCTIVITY     14.7170  14.7831  14.8491  14.9150  14.9807  15.0462  15.1115  15.1765
 PRANDTL NUMBER    0.6952   0.6953   0.6954   0.6956   0.6957   0.6959   0.6960   0.6962

 MOLE FRACTIONS

 *H               0.20051  0.20505  0.20965  0.21430  0.21902  0.22379  0.22863  0.23352
 *H2              0.79949  0.79495  0.79035  0.78570  0.78098  0.77621  0.77137  0.76648

  * THERMODYNAMIC PROPERTIES FITTED TO 20000.K

 NOTE. WEIGHT FRACTION OF FUEL IN TOTAL FUELS AND OF OXIDANT IN TOTAL OXIDANTS









               THERMODYNAMIC EQUILIBRIUM PROPERTIES AT ASSIGNED

                           TEMPERATURE AND PRESSURE

 CASE =                

             REACTANT                    WT FRACTION      ENERGY      TEMP
                                          (SEE NOTE)     KJ/KG-MOL      K  
             H2                           1.0000000         0.000      0.000

 O/F=    0.00000  %FUEL=100.000000  R,EQ.RATIO= 0.000000  PHI,EQ.RATIO= 0.000000

 THERMODYNAMIC PROPERTIES

 P, BAR            2.8000   2.8000   2.8000   2.8000   2.8000   2.8000   3.1000   3.1000
 T, K             3390.00  3400.00  3410.00  3420.00  3430.00  3440.00  3300.00  3310.00
 RHO, KG/CU M    1.7638-2 1.7536-2 1.7434-2 1.7333-2 1.7231-2 1.7129-2 2.0643-2 2.0532-2
 H, KJ/KG         82240.7  83171.3  84114.6  85070.7  86039.7  87021.7  73205.8  73995.3
 U, KJ/KG         66365.9  67204.2  68054.3  68916.1  69789.8  70675.4  58188.5  58896.6
 G, KJ/KG       -287033.4-288124.1-289217.5-290313.7-291412.8-292514.6-275804.5-276863.2
 S, KJ/(KG)(K)   108.9304 109.2045 109.4815 109.7615 110.0444 110.3303 105.7607 105.9996

 M, (1/n)           1.776    1.770    1.765    1.760    1.755    1.750    1.827    1.823
 (dLV/dLP)t      -1.05852 -1.05970 -1.06088 -1.06207 -1.06327 -1.06448 -1.04633 -1.04737
 (dLV/dLT)p        1.9575   1.9740   1.9904   2.0069   2.0235   2.0401   1.7781   1.7932
 Cp, KJ/(KG)(K)   92.4200  93.6906  94.9691  96.2550  97.5480  98.8476  78.3866  79.5206
 GAMMAs            1.1569   1.1569   1.1569   1.1569   1.1569   1.1569   1.1591   1.1589
 SON VEL,M/SEC     4285.6   4297.9   4310.4   4323.0   4335.7   4348.6   4172.0   4183.0

 TRANSPORT PROPERTIES (GASES ONLY)
   CONDUCTIVITY IN UNITS OF MILLIWATTS/(CM)(K)

 VISC,MILLIPOISE  0.55706  0.55915  0.56123  0.56331  0.56538  0.56744  0.53664  0.53873

  WITH EQUILIBRIUM REACTIONS

 Cp, KJ/(KG)(K)   92.4200  93.6906  94.9691  96.2550  97.5480  98.8476  78.3866  79.5206
 CONDUCTIVITY    107.3815 108.9949 110.6123 112.2331 113.8565 115.4817  89.7025  91.2002
 PRANDTL NUMBER    0.4794   0.4806   0.4819   0.4831   0.4844   0.4857   0.4689   0.4697

  WITH FROZEN REACTIONS

 Cp, KJ/(KG)(K)   19.0531  19.0676  19.0822  19.0968  19.1114  19.1260  18.9126  18.9268
 CONDUCTIVITY     15.2412  15.3057  15.3698  15.4335  15.4969  15.5598  14.6030  14.6692
 PRANDTL NUMBER    0.6964   0.6966   0.6968   0.6970   0.6972   0.6975   0.6950   0.6951

 MOLE FRACTIONS

 *H               0.23846  0.24347  0.24853  0.25364  0.25881  0.26403  0.18731  0.19162
 *H2              0.76154  0.75653  0.75147  0.74636  0.74119  0.73597  0.81268  0.80838

  * THERMODYNAMIC PROPERTIES FITTED TO 20000.K

 NOTE. WEIGHT FRACTION OF FUEL IN TOTAL FUELS AND OF OXIDANT IN TOTAL OXIDANTS









               THERMODYNAMIC EQUILIBRIUM PROPERTIES AT ASSIGNED

                           TEMPERATURE AND PRESSURE

 CASE =                

             REACTANT                    WT FRACTION      ENERGY      TEMP
                                          (SEE NOTE)     KJ/KG-MOL      K  
             H2                           1.0000000         0.000      0.000

 O/F=    0.00000  %FUEL=100.000000  R,EQ.RATIO= 0.000000  PHI,EQ.RATIO= 0.000000

 THERMODYNAMIC PROPERTIES

 P, BAR            3.1000   3.1000   3.1000   3.1000   3.1000   3.1000   3.1000   3.1000
 T, K             3320.00  3330.00  3340.00  3350.00  3360.00  3370.00  3380.00  3390.00
 RHO, KG/CU M    2.0420-2 2.0309-2 2.0198-2 2.0087-2 1.9975-2 1.9864-2 1.9753-2 1.9642-2
 H, KJ/KG         74796.3  75608.7  76432.7  77268.4  78115.9  78975.3  79846.7  80730.2
 U, KJ/KG         59615.3  60344.6  61084.5  61835.3  62596.9  63369.4  64153.0  64947.7
 G, KJ/KG       -277924.4-278988.0-280054.1-281122.7-282193.8-283267.4-284343.6-285422.4
 S, KJ/(KG)(K)   106.2412 106.4855 106.7326 106.9824 107.2350 107.4904 107.7486 108.0096

 M, (1/n)           1.818    1.814    1.809    1.805    1.800    1.795    1.791    1.786
 (dLV/dLP)t      -1.04842 -1.04948 -1.05055 -1.05164 -1.05274 -1.05385 -1.05496 -1.05609
 (dLV/dLT)p        1.8084   1.8238   1.8392   1.8547   1.8704   1.8861   1.9019   1.9178
 Cp, KJ/(KG)(K)   80.6652  81.8201  82.9852  84.1601  85.3447  86.5387  87.7417  88.9536
 GAMMAs            1.1587   1.1586   1.1584   1.1583   1.1582   1.1581   1.1580   1.1579
 SON VEL,M/SEC     4194.1   4205.3   4216.6   4228.0   4239.6   4251.3   4263.0   4275.0

 TRANSPORT PROPERTIES (GASES ONLY)
   CONDUCTIVITY IN UNITS OF MILLIWATTS/(CM)(K)

 VISC,MILLIPOISE  0.54082  0.54291  0.54501  0.54711  0.54920  0.55130  0.55340  0.55549

  WITH EQUILIBRIUM REACTIONS

 Cp, KJ/(KG)(K)   80.6652  81.8201  82.9852  84.1601  85.3447  86.5387  87.7417  88.9536
 CONDUCTIVITY     92.7082  94.2261  95.7533  97.2893  98.8336 100.3856 101.9448 103.5105
 PRANDTL NUMBER    0.4706   0.4714   0.4723   0.4733   0.4742   0.4753   0.4763   0.4774

  WITH FROZEN REACTIONS

 Cp, KJ/(KG)(K)   18.9411  18.9553  18.9696  18.9838  18.9981  19.0124  19.0268  19.0411
 CONDUCTIVITY     14.7354  14.8015  14.8674  14.9333  14.9990  15.0645  15.1298  15.1949
 PRANDTL NUMBER    0.6952   0.6953   0.6954   0.6955   0.6956   0.6958   0.6959   0.6961

 MOLE FRACTIONS

 *H               0.19598  0.20040  0.20489  0.20943  0.21402  0.21868  0.22339  0.22816
 *H2              0.80402  0.79960  0.79511  0.79057  0.78598  0.78132  0.77661  0.77184

  * THERMODYNAMIC PROPERTIES FITTED TO 20000.K

 NOTE. WEIGHT FRACTION OF FUEL IN TOTAL FUELS AND OF OXIDANT IN TOTAL OXIDANTS









               THERMODYNAMIC EQUILIBRIUM PROPERTIES AT ASSIGNED

                           TEMPERATURE AND PRESSURE

 CASE =                

             REACTANT                    WT FRACTION      ENERGY      TEMP
                                          (SEE NOTE)     KJ/KG-MOL      K  
             H2                           1.0000000         0.000      0.000

 O/F=    0.00000  %FUEL=100.000000  R,EQ.RATIO= 0.000000  PHI,EQ.RATIO= 0.000000

 THERMODYNAMIC PROPERTIES

 P, BAR            3.1000   3.1000   3.1000   3.1000   3.1000   3.5000   3.5000   3.5000
 T, K             3400.00  3410.00  3420.00  3430.00  3440.00  3300.00  3310.00  3320.00
 RHO, KG/CU M    1.9531-2 1.9420-2 1.9309-2 1.9198-2 1.9087-2 2.3434-2 2.3311-2 2.3188-2
 H, KJ/KG         81625.8  82533.7  83453.9  84386.5  85331.6  71828.6  72583.7  73349.6
 U, KJ/KG         65753.5  66570.6  67399.0  68238.9  69090.1  56893.2  57569.3  58255.3
 G, KJ/KG       -286503.8-287587.8-288674.6-289764.0-290856.2-273987.0-275036.0-276087.3
 S, KJ/(KG)(K)   108.2734 108.5400 108.8095 109.0818 109.3569 104.7926 105.0210 105.2521

 M, (1/n)           1.781    1.776    1.771    1.766    1.761    1.837    1.833    1.829
 (dLV/dLP)t      -1.05723 -1.05838 -1.05954 -1.06071 -1.06188 -1.04392 -1.04491 -1.04592
 (dLV/dLT)p        1.9338   1.9498   1.9659   1.9820   1.9982   1.7377   1.7522   1.7668
 Cp, KJ/(KG)(K)   90.1740  91.4026  92.6391  93.8830  95.1341  74.9761  76.0513  77.1369
 GAMMAs            1.1579   1.1578   1.1578   1.1578   1.1578   1.1606   1.1604   1.1602
 SON VEL,M/SEC     4287.0   4299.2   4311.4   4323.8   4336.4   4163.3   4174.0   4184.7

 TRANSPORT PROPERTIES (GASES ONLY)
   CONDUCTIVITY IN UNITS OF MILLIWATTS/(CM)(K)

 VISC,MILLIPOISE  0.55758  0.55967  0.56175  0.56383  0.56590  0.53482  0.53690  0.53898

  WITH EQUILIBRIUM REACTIONS

 Cp, KJ/(KG)(K)   90.1740  91.4026  92.6391  93.8830  95.1341  74.9761  76.0513  77.1369
 CONDUCTIVITY    105.0821 106.6590 108.2405 109.8259 111.4146  85.7424  87.1813  88.6311
 PRANDTL NUMBER    0.4785   0.4796   0.4808   0.4820   0.4832   0.4677   0.4684   0.4691

  WITH FROZEN REACTIONS

 Cp, KJ/(KG)(K)   19.0555  19.0698  19.0842  19.0986  19.1130  18.9011  18.9151  18.9291
 CONDUCTIVITY     15.2598  15.3244  15.3887  15.4526  15.5162  14.5461  14.6122  14.6782
 PRANDTL NUMBER    0.6963   0.6965   0.6967   0.6969   0.6971   0.6949   0.6950   0.6951

 MOLE FRACTIONS

 *H               0.23298  0.23786  0.24280  0.24779  0.25283  0.17736  0.18147  0.18563
 *H2              0.76702  0.76214  0.75720  0.75221  0.74717  0.82264  0.81853  0.81437

  * THERMODYNAMIC PROPERTIES FITTED TO 20000.K

 NOTE. WEIGHT FRACTION OF FUEL IN TOTAL FUELS AND OF OXIDANT IN TOTAL OXIDANTS









               THERMODYNAMIC EQUILIBRIUM PROPERTIES AT ASSIGNED

                           TEMPERATURE AND PRESSURE

 CASE =                

             REACTANT                    WT FRACTION      ENERGY      TEMP
                                          (SEE NOTE)     KJ/KG-MOL      K  
             H2                           1.0000000         0.000      0.000

 O/F=    0.00000  %FUEL=100.000000  R,EQ.RATIO= 0.000000  PHI,EQ.RATIO= 0.000000

 THERMODYNAMIC PROPERTIES

 P, BAR            3.5000   3.5000   3.5000   3.5000   3.5000   3.5000   3.5000   3.5000
 T, K             3330.00  3340.00  3350.00  3360.00  3370.00  3380.00  3390.00  3400.00
 RHO, KG/CU M    2.3064-2 2.2941-2 2.2817-2 2.2694-2 2.2571-2 2.2447-2 2.2324-2 2.2201-2
 H, KJ/KG         74126.5  74914.3  75713.3  76523.4  77344.9  78177.8  79022.1  79878.0
 U, KJ/KG         58951.4  59657.6  60374.1  61100.9  61838.1  62585.7  63344.0  64112.8
 G, KJ/KG       -277141.0-278197.0-279255.5-280316.3-281379.5-282445.2-283513.4-284584.1
 S, KJ/(KG)(K)   105.4857 105.7220 105.9608 106.2023 106.4464 106.6932 106.9426 107.1947

 M, (1/n)           1.825    1.820    1.816    1.811    1.807    1.802    1.798    1.793
 (dLV/dLP)t      -1.04694 -1.04797 -1.04901 -1.05007 -1.05113 -1.05221 -1.05329 -1.05439
 (dLV/dLT)p        1.7815   1.7963   1.8112   1.8263   1.8414   1.8567   1.8720   1.8874
 Cp, KJ/(KG)(K)   78.2327  79.3386  80.4543  81.5796  82.7144  83.8584  85.0114  86.1730
 GAMMAs            1.1600   1.1598   1.1597   1.1595   1.1594   1.1593   1.1592   1.1591
 SON VEL,M/SEC     4195.6   4206.6   4217.7   4228.9   4240.2   4251.6   4263.1   4274.8

 TRANSPORT PROPERTIES (GASES ONLY)
   CONDUCTIVITY IN UNITS OF MILLIWATTS/(CM)(K)

 VISC,MILLIPOISE  0.54106  0.54315  0.54524  0.54733  0.54942  0.55151  0.55360  0.55569

  WITH EQUILIBRIUM REACTIONS

 Cp, KJ/(KG)(K)   78.2327  79.3386  80.4543  81.5796  82.7144  83.8584  85.0114  86.1730
 CONDUCTIVITY     90.0914  91.5616  93.0414  94.5302  96.0277  97.5332  99.0463 100.5664
 PRANDTL NUMBER    0.4698   0.4706   0.4715   0.4723   0.4732   0.4742   0.4752   0.4762

  WITH FROZEN REACTIONS

 Cp, KJ/(KG)(K)   18.9431  18.9572  18.9712  18.9853  18.9994  19.0135  19.0276  19.0417
 CONDUCTIVITY     14.7443  14.8102  14.8762  14.9420  15.0077  15.0732  15.1386  15.2038
 PRANDTL NUMBER    0.6951   0.6952   0.6953   0.6954   0.6955   0.6957   0.6958   0.6960

 MOLE FRACTIONS

 *H               0.18985  0.19412  0.19846  0.20285  0.20730  0.21180  0.21636  0.22098
 *H2              0.81015  0.80588  0.80154  0.79715  0.79270  0.78820  0.78364  0.77902

  * THERMODYNAMIC PROPERTIES FITTED TO 20000.K

 NOTE. WEIGHT FRACTION OF FUEL IN TOTAL FUELS AND OF OXIDANT IN TOTAL OXIDANTS









               THERMODYNAMIC EQUILIBRIUM PROPERTIES AT ASSIGNED

                           TEMPERATURE AND PRESSURE

 CASE =                

             REACTANT                    WT FRACTION      ENERGY      TEMP
                                          (SEE NOTE)     KJ/KG-MOL      K  
             H2                           1.0000000         0.000      0.000

 O/F=    0.00000  %FUEL=100.000000  R,EQ.RATIO= 0.000000  PHI,EQ.RATIO= 0.000000

 THERMODYNAMIC PROPERTIES

 P, BAR            3.5000   3.5000   3.5000   3.5000   3.9000   3.9000   3.9000   3.9000
 T, K             3410.00  3420.00  3430.00  3440.00  3300.00  3310.00  3320.00  3330.00
 RHO, KG/CU M    2.2078-2 2.1954-2 2.1831-2 2.1708-2 2.6234-2 2.6099-2 2.5963-2 2.5828-2
 H, KJ/KG         80745.6  81624.9  82516.0  83419.1  70667.2  71393.2  72129.5  72876.2
 U, KJ/KG         64892.4  65682.8  66484.0  67296.2  55801.0  56449.8  57108.2  57776.2
 G, KJ/KG       -285657.3-286733.1-287811.4-288892.4-272374.5-273415.1-274457.9-275503.0
 S, KJ/(KG)(K)   107.4495 107.7070 107.9672 108.2301 103.9520 104.1717 104.3938 104.6184

 M, (1/n)           1.788    1.784    1.779    1.774    1.846    1.842    1.838    1.834
 (dLV/dLP)t      -1.05550 -1.05662 -1.05774 -1.05888 -1.04186 -1.04282 -1.04378 -1.04476
 (dLV/dLT)p        1.9029   1.9184   1.9341   1.9498   1.7031   1.7170   1.7311   1.7453
 Cp, KJ/(KG)(K)   87.3431  88.5214  89.7075  90.9011  72.0905  73.1152  74.1500  75.1949
 GAMMAs            1.1591   1.1590   1.1590   1.1589   1.1620   1.1617   1.1615   1.1613
 SON VEL,M/SEC     4286.6   4298.5   4310.5   4322.6   4156.2   4166.6   4177.0   4187.6

 TRANSPORT PROPERTIES (GASES ONLY)
   CONDUCTIVITY IN UNITS OF MILLIWATTS/(CM)(K)

 VISC,MILLIPOISE  0.55778  0.55986  0.56195  0.56402  0.53323  0.53529  0.53735  0.53942

  WITH EQUILIBRIUM REACTIONS

 Cp, KJ/(KG)(K)   87.3431  88.5214  89.7075  90.9011  72.0905  73.1152  74.1500  75.1949
 CONDUCTIVITY    102.0930 103.6255 105.1632 106.7057  82.3546  83.7414  85.1395  86.5484
 PRANDTL NUMBER    0.4772   0.4783   0.4794   0.4805   0.4668   0.4674   0.4680   0.4687

  WITH FROZEN REACTIONS

 Cp, KJ/(KG)(K)   19.0558  19.0699  19.0841  19.0982  18.8914  18.9052  18.9191  18.9329
 CONDUCTIVITY     15.2688  15.3336  15.3981  15.4623  14.4956  14.5614  14.6273  14.6932
 PRANDTL NUMBER    0.6961   0.6963   0.6965   0.6967   0.6949   0.6950   0.6950   0.6951

 MOLE FRACTIONS

 *H               0.22565  0.23037  0.23515  0.23998  0.16888  0.17281  0.17680  0.18084
 *H2              0.77435  0.76963  0.76485  0.76002  0.83112  0.82719  0.82320  0.81916

  * THERMODYNAMIC PROPERTIES FITTED TO 20000.K

 NOTE. WEIGHT FRACTION OF FUEL IN TOTAL FUELS AND OF OXIDANT IN TOTAL OXIDANTS









               THERMODYNAMIC EQUILIBRIUM PROPERTIES AT ASSIGNED

                           TEMPERATURE AND PRESSURE

 CASE =                

             REACTANT                    WT FRACTION      ENERGY      TEMP
                                          (SEE NOTE)     KJ/KG-MOL      K  
             H2                           1.0000000         0.000      0.000

 O/F=    0.00000  %FUEL=100.000000  R,EQ.RATIO= 0.000000  PHI,EQ.RATIO= 0.000000

 THERMODYNAMIC PROPERTIES

 P, BAR            3.9000   3.9000   3.9000   3.9000   3.9000   3.9000   3.9000   3.9000
 T, K             3340.00  3350.00  3360.00  3370.00  3380.00  3390.00  3400.00  3410.00
 RHO, KG/CU M    2.5692-2 2.5557-2 2.5422-2 2.5287-2 2.5151-2 2.5016-2 2.4881-2 2.4746-2
 H, KJ/KG         73633.4  74401.2  75179.7  75969.0  76769.2  77580.4  78402.6  79235.9
 U, KJ/KG         58453.9  59141.3  59838.6  60545.8  61263.0  61990.3  62727.8  63475.5
 G, KJ/KG       -276550.3-277599.9-278651.8-279706.0-280762.6-281821.6-282883.0-283946.8
 S, KJ/(KG)(K)   104.8454 105.0750 105.3070 105.5416 105.7786 106.0183 106.2605 106.5052

 M, (1/n)           1.829    1.825    1.821    1.817    1.812    1.808    1.803    1.799
 (dLV/dLP)t      -1.04576 -1.04676 -1.04777 -1.04880 -1.04984 -1.05089 -1.05195 -1.05302
 (dLV/dLT)p        1.7595   1.7740   1.7885   1.8031   1.8178   1.8326   1.8475   1.8625
 Cp, KJ/(KG)(K)   76.2497  77.3143  78.3884  79.4720  80.5647  81.6664  82.7769  83.8960
 GAMMAs            1.1611   1.1610   1.1608   1.1607   1.1605   1.1604   1.1603   1.1602
 SON VEL,M/SEC     4198.3   4209.1   4220.0   4231.0   4242.1   4253.3   4264.7   4276.1

 TRANSPORT PROPERTIES (GASES ONLY)
   CONDUCTIVITY IN UNITS OF MILLIWATTS/(CM)(K)

 VISC,MILLIPOISE  0.54150  0.54358  0.54566  0.54774  0.54982  0.55191  0.55399  0.55608

  WITH EQUILIBRIUM REACTIONS

 Cp, KJ/(KG)(K)   76.2497  77.3143  78.3884  79.4720  80.5647  81.6664  82.7769  83.8960
 CONDUCTIVITY     87.9677  89.3971  90.8361  92.2843  93.7413  95.2066  96.6797  98.1601
 PRANDTL NUMBER    0.4694   0.4701   0.4709   0.4717   0.4725   0.4734   0.4743   0.4753

  WITH FROZEN REACTIONS

 Cp, KJ/(KG)(K)   18.9467  18.9606  18.9744  18.9883  19.0022  19.0161  19.0300  19.0439
 CONDUCTIVITY     14.7591  14.8249  14.8907  14.9565  15.0221  15.0876  15.1530  15.2182
 PRANDTL NUMBER    0.6951   0.6952   0.6953   0.6954   0.6955   0.6956   0.6957   0.6959

 MOLE FRACTIONS

 *H               0.18494  0.18910  0.19331  0.19758  0.20190  0.20628  0.21071  0.21520
 *H2              0.81506  0.81090  0.80669  0.80242  0.79810  0.79372  0.78929  0.78480

  * THERMODYNAMIC PROPERTIES FITTED TO 20000.K

 NOTE. WEIGHT FRACTION OF FUEL IN TOTAL FUELS AND OF OXIDANT IN TOTAL OXIDANTS









               THERMODYNAMIC EQUILIBRIUM PROPERTIES AT ASSIGNED

                           TEMPERATURE AND PRESSURE

 CASE =                

             REACTANT                    WT FRACTION      ENERGY      TEMP
                                          (SEE NOTE)     KJ/KG-MOL      K  
             H2                           1.0000000         0.000      0.000

 O/F=    0.00000  %FUEL=100.000000  R,EQ.RATIO= 0.000000  PHI,EQ.RATIO= 0.000000

 THERMODYNAMIC PROPERTIES

 P, BAR            3.9000   3.9000   3.9000   4.4000   4.4000   4.4000   4.4000   4.4000
 T, K             3420.00  3430.00  3440.00  3300.00  3310.00  3320.00  3330.00  3340.00
 RHO, KG/CU M    2.4610-2 2.4475-2 2.4340-2 2.9743-2 2.9593-2 2.9443-2 2.9293-2 2.9143-2
 H, KJ/KG         80080.5  80936.4  81803.7  69442.7  70137.9  70842.9  71557.7  72282.5
 U, KJ/KG         64233.6  65002.0  65780.9  54649.4  55269.5  55898.7  56537.0  57184.4
 G, KJ/KG       -285013.1-286081.9-287153.2-270585.6-271617.1-272650.6-273686.3-274724.2
 S, KJ/(KG)(K)   106.7525 107.0024 107.2549 103.0389 103.2492 103.4619 103.6769 103.8942

 M, (1/n)           1.794    1.790    1.785    1.855    1.851    1.847    1.843    1.839
 (dLV/dLP)t      -1.05410 -1.05519 -1.05629 -1.03966 -1.04058 -1.04150 -1.04244 -1.04339
 (dLV/dLT)p        1.8776   1.8927   1.9080   1.6662   1.6795   1.6930   1.7065   1.7202
 Cp, KJ/(KG)(K)   85.0233  86.1587  87.3019  69.0392  70.0097  70.9901  71.9804  72.9803
 GAMMAs            1.1601   1.1601   1.1600   1.1636   1.1633   1.1631   1.1629   1.1627
 SON VEL,M/SEC     4287.7   4299.4   4311.2   4148.9   4159.0   4169.1   4179.4   4189.8

 TRANSPORT PROPERTIES (GASES ONLY)
   CONDUCTIVITY IN UNITS OF MILLIWATTS/(CM)(K)

 VISC,MILLIPOISE  0.55816  0.56025  0.56233  0.53148  0.53352  0.53557  0.53762  0.53968

  WITH EQUILIBRIUM REACTIONS

 Cp, KJ/(KG)(K)   85.0233  86.1587  87.3019  69.0392  70.0097  70.9901  71.9804  72.9803
 CONDUCTIVITY     99.6473 101.1408 102.6401  78.7349  80.0644  81.4053  82.7573  84.1201
 PRANDTL NUMBER    0.4762   0.4773   0.4783   0.4660   0.4665   0.4670   0.4676   0.4682

  WITH FROZEN REACTIONS

 Cp, KJ/(KG)(K)   19.0579  19.0718  19.0858  18.8812  18.8948  18.9084  18.9221  18.9357
 CONDUCTIVITY     15.2833  15.3482  15.4128  14.4397  14.5052  14.5708  14.6365  14.7021
 PRANDTL NUMBER    0.6960   0.6962   0.6963   0.6950   0.6950   0.6950   0.6950   0.6951

 MOLE FRACTIONS

 *H               0.21974  0.22434  0.22898  0.15986  0.16360  0.16740  0.17125  0.17516
 *H2              0.78026  0.77566  0.77102  0.84014  0.83640  0.83260  0.82875  0.82484

  * THERMODYNAMIC PROPERTIES FITTED TO 20000.K

 NOTE. WEIGHT FRACTION OF FUEL IN TOTAL FUELS AND OF OXIDANT IN TOTAL OXIDANTS









               THERMODYNAMIC EQUILIBRIUM PROPERTIES AT ASSIGNED

                           TEMPERATURE AND PRESSURE

 CASE =                

             REACTANT                    WT FRACTION      ENERGY      TEMP
                                          (SEE NOTE)     KJ/KG-MOL      K  
             H2                           1.0000000         0.000      0.000

 O/F=    0.00000  %FUEL=100.000000  R,EQ.RATIO= 0.000000  PHI,EQ.RATIO= 0.000000

 THERMODYNAMIC PROPERTIES

 P, BAR            4.4000   4.4000   4.4000   4.4000   4.4000   4.4000   4.4000   4.4000
 T, K             3350.00  3360.00  3370.00  3380.00  3390.00  3400.00  3410.00  3420.00
 RHO, KG/CU M    2.8993-2 2.8842-2 2.8692-2 2.8542-2 2.8392-2 2.8243-2 2.8093-2 2.7943-2
 H, KJ/KG         73017.4  73762.4  74517.6  75283.1  76059.1  76845.6  77642.6  78450.4
 U, KJ/KG         57841.1  58507.1  59182.5  59867.5  60562.0  61266.2  61980.2  62703.9
 G, KJ/KG       -275764.2-276806.4-277850.9-278897.7-279946.7-280998.0-282051.6-283107.6
 S, KJ/(KG)(K)   104.1139 104.3360 104.5604 104.7872 105.0165 105.2481 105.4822 105.7187

 M, (1/n)           1.835    1.831    1.827    1.823    1.819    1.815    1.810    1.806
 (dLV/dLP)t      -1.04435 -1.04532 -1.04630 -1.04730 -1.04831 -1.04932 -1.05035 -1.05139
 (dLV/dLT)p        1.7340   1.7480   1.7620   1.7761   1.7904   1.8047   1.8191   1.8337
 Cp, KJ/(KG)(K)   73.9898  75.0088  76.0370  77.0743  78.1206  79.1756  80.2392  81.3112
 GAMMAs            1.1625   1.1623   1.1621   1.1619   1.1618   1.1617   1.1615   1.1614
 SON VEL,M/SEC     4200.2   4210.8   4221.5   4232.3   4243.2   4254.2   4265.3   4276.5

 TRANSPORT PROPERTIES (GASES ONLY)
   CONDUCTIVITY IN UNITS OF MILLIWATTS/(CM)(K)

 VISC,MILLIPOISE  0.54174  0.54381  0.54588  0.54795  0.55003  0.55211  0.55418  0.55626

  WITH EQUILIBRIUM REACTIONS

 Cp, KJ/(KG)(K)   73.9898  75.0088  76.0370  77.0743  78.1206  79.1756  80.2392  81.3112
 CONDUCTIVITY     85.4934  86.8767  88.2698  89.6723  91.0837  92.5036  93.9317  95.3673
 PRANDTL NUMBER    0.4688   0.4695   0.4702   0.4710   0.4717   0.4726   0.4734   0.4743

  WITH FROZEN REACTIONS

 Cp, KJ/(KG)(K)   18.9494  18.9630  18.9767  18.9904  19.0040  19.0177  19.0314  19.0452
 CONDUCTIVITY     14.7678  14.8335  14.8991  14.9647  15.0303  15.0957  15.1611  15.2263
 PRANDTL NUMBER    0.6951   0.6952   0.6953   0.6954   0.6954   0.6955   0.6957   0.6958

 MOLE FRACTIONS

 *H               0.17912  0.18314  0.18721  0.19134  0.19552  0.19975  0.20404  0.20838
 *H2              0.82088  0.81686  0.81279  0.80866  0.80448  0.80025  0.79596  0.79162

  * THERMODYNAMIC PROPERTIES FITTED TO 20000.K

 NOTE. WEIGHT FRACTION OF FUEL IN TOTAL FUELS AND OF OXIDANT IN TOTAL OXIDANTS









               THERMODYNAMIC EQUILIBRIUM PROPERTIES AT ASSIGNED

                           TEMPERATURE AND PRESSURE

 CASE =                

             REACTANT                    WT FRACTION      ENERGY      TEMP
                                          (SEE NOTE)     KJ/KG-MOL      K  
             H2                           1.0000000         0.000      0.000

 O/F=    0.00000  %FUEL=100.000000  R,EQ.RATIO= 0.000000  PHI,EQ.RATIO= 0.000000

 THERMODYNAMIC PROPERTIES

 P, BAR            4.4000   4.4000   4.9000   4.9000   4.9000   4.9000   4.9000   4.9000
 T, K             3430.00  3440.00  3300.00  3310.00  3320.00  3330.00  3340.00  3350.00
 RHO, KG/CU M    2.7793-2 2.7643-2 3.3261-2 3.3097-2 3.2932-2 3.2767-2 3.2603-2 3.2438-2
 H, KJ/KG         79268.9  80098.2  68409.4  69078.6  69757.1  70444.9  71142.3  71849.2
 U, KJ/KG         63437.6  64181.2  53677.6  54273.5  54877.9  55491.0  56112.8  56743.5
 G, KJ/KG       -284166.0-285226.8-268996.8-270020.2-271045.7-272073.2-273102.9-274134.6
 S, KJ/(KG)(K)   105.9577 106.1991 102.2443 102.4468 102.6514 102.8583 103.0674 103.2787

 M, (1/n)           1.801    1.797    1.862    1.859    1.855    1.852    1.848    1.844
 (dLV/dLP)t      -1.05244 -1.05350 -1.03779 -1.03866 -1.03955 -1.04045 -1.04136 -1.04228
 (dLV/dLT)p        1.8483   1.8629   1.6346   1.6474   1.6604   1.6734   1.6866   1.6999
 Cp, KJ/(KG)(K)   82.3913  83.4794  66.4576  67.3817  68.3156  69.2589  70.2118  71.1740
 GAMMAs            1.1613   1.1613   1.1651   1.1648   1.1646   1.1643   1.1641   1.1638
 SON VEL,M/SEC     4287.8   4299.3   4142.9   4152.7   4162.6   4172.6   4182.7   4192.9

 TRANSPORT PROPERTIES (GASES ONLY)
   CONDUCTIVITY IN UNITS OF MILLIWATTS/(CM)(K)

 VISC,MILLIPOISE  0.55834  0.56042  0.52994  0.53197  0.53400  0.53604  0.53808  0.54013

  WITH EQUILIBRIUM REACTIONS

 Cp, KJ/(KG)(K)   82.3913  83.4794  66.4576  67.3817  68.3156  69.2589  70.2118  71.1740
 CONDUCTIVITY     96.8102  98.2598  75.6422  76.9212  78.2117  79.5136  80.8264  82.1500
 PRANDTL NUMBER    0.4752   0.4761   0.4656   0.4660   0.4664   0.4669   0.4674   0.4680

  WITH FROZEN REACTIONS

 Cp, KJ/(KG)(K)   19.0589  19.0726  18.8726  18.8860  18.8995  18.9129  18.9264  18.9399
 CONDUCTIVITY     15.2914  15.3564  14.3904  14.4556  14.5208  14.5862  14.6515  14.7170
 PRANDTL NUMBER    0.6959   0.6960   0.6950   0.6950   0.6950   0.6950   0.6951   0.6951

 MOLE FRACTIONS

 *H               0.21277  0.21722  0.15218  0.15576  0.15939  0.16308  0.16682  0.17062
 *H2              0.78723  0.78278  0.84782  0.84424  0.84061  0.83692  0.83318  0.82938

  * THERMODYNAMIC PROPERTIES FITTED TO 20000.K

 NOTE. WEIGHT FRACTION OF FUEL IN TOTAL FUELS AND OF OXIDANT IN TOTAL OXIDANTS









               THERMODYNAMIC EQUILIBRIUM PROPERTIES AT ASSIGNED

                           TEMPERATURE AND PRESSURE

 CASE =                

             REACTANT                    WT FRACTION      ENERGY      TEMP
                                          (SEE NOTE)     KJ/KG-MOL      K  
             H2                           1.0000000         0.000      0.000

 O/F=    0.00000  %FUEL=100.000000  R,EQ.RATIO= 0.000000  PHI,EQ.RATIO= 0.000000

 THERMODYNAMIC PROPERTIES

 P, BAR            4.9000   4.9000   4.9000   4.9000   4.9000   4.9000   4.9000   4.9000
 T, K             3360.00  3370.00  3380.00  3390.00  3400.00  3410.00  3420.00  3430.00
 RHO, KG/CU M    3.2273-2 3.2109-2 3.1944-2 3.1780-2 3.1616-2 3.1451-2 3.1287-2 3.1123-2
 H, KJ/KG         72565.8  73292.1  74028.3  74774.5  75530.6  76296.9  77073.4  77860.2
 U, KJ/KG         57383.0  58031.6  58689.2  59355.9  60031.9  60717.2  61411.9  62116.0
 G, KJ/KG       -275168.4-276204.4-277242.6-278283.0-279325.6-280370.4-281417.5-282466.8
 S, KJ/(KG)(K)   103.4923 103.7082 103.9263 104.1467 104.3695 104.5945 104.8219 105.0516

 M, (1/n)           1.840    1.836    1.832    1.828    1.824    1.820    1.816    1.811
 (dLV/dLP)t      -1.04322 -1.04416 -1.04512 -1.04609 -1.04707 -1.04806 -1.04906 -1.05008
 (dLV/dLT)p        1.7133   1.7268   1.7404   1.7541   1.7680   1.7819   1.7959   1.8100
 Cp, KJ/(KG)(K)   72.1454  73.1260  74.1155  75.1139  76.1210  77.1366  78.1605  79.1927
 GAMMAs            1.1636   1.1634   1.1633   1.1631   1.1629   1.1628   1.1627   1.1625
 SON VEL,M/SEC     4203.2   4213.6   4224.1   4234.8   4245.5   4256.3   4267.2   4278.2

 TRANSPORT PROPERTIES (GASES ONLY)
   CONDUCTIVITY IN UNITS OF MILLIWATTS/(CM)(K)

 VISC,MILLIPOISE  0.54218  0.54424  0.54630  0.54836  0.55043  0.55250  0.55457  0.55664

  WITH EQUILIBRIUM REACTIONS

 Cp, KJ/(KG)(K)   72.1454  73.1260  74.1155  75.1139  76.1210  77.1366  78.1605  79.1927
 CONDUCTIVITY     83.4840  84.8280  86.1818  87.5450  88.9172  90.2980  91.6871  93.0840
 PRANDTL NUMBER    0.4685   0.4692   0.4698   0.4705   0.4712   0.4720   0.4728   0.4736

  WITH FROZEN REACTIONS

 Cp, KJ/(KG)(K)   18.9534  18.9668  18.9803  18.9938  19.0074  19.0209  19.0344  19.0480
 CONDUCTIVITY     14.7825  14.8479  14.9134  14.9789  15.0443  15.1097  15.1750  15.2402
 PRANDTL NUMBER    0.6952   0.6952   0.6953   0.6953   0.6954   0.6955   0.6956   0.6957

 MOLE FRACTIONS

 *H               0.17446  0.17837  0.18232  0.18633  0.19039  0.19450  0.19867  0.20289
 *H2              0.82554  0.82163  0.81768  0.81367  0.80961  0.80550  0.80133  0.79711

  * THERMODYNAMIC PROPERTIES FITTED TO 20000.K

 NOTE. WEIGHT FRACTION OF FUEL IN TOTAL FUELS AND OF OXIDANT IN TOTAL OXIDANTS









               THERMODYNAMIC EQUILIBRIUM PROPERTIES AT ASSIGNED

                           TEMPERATURE AND PRESSURE

 CASE =                

             REACTANT                    WT FRACTION      ENERGY      TEMP
                                          (SEE NOTE)     KJ/KG-MOL      K  
             H2                           1.0000000         0.000      0.000

 O/F=    0.00000  %FUEL=100.000000  R,EQ.RATIO= 0.000000  PHI,EQ.RATIO= 0.000000

 THERMODYNAMIC PROPERTIES

 P, BAR            4.9000   5.4000   5.4000   5.4000   5.4000   5.4000   5.4000   5.4000
 T, K             3440.00  3300.00  3310.00  3320.00  3330.00  3340.00  3350.00  3360.00
 RHO, KG/CU M    3.0958-2 3.6787-2 3.6608-2 3.6429-2 3.6250-2 3.6071-2 3.5892-2 3.5713-2
 H, KJ/KG         78657.3  67522.3  68169.0  68824.7  69489.3  70163.1  70845.9  71538.1
 U, KJ/KG         62829.6  52843.3  53418.2  54001.4  54592.8  55192.6  55800.8  56417.6
 G, KJ/KG       -283518.5-267568.0-268584.3-269602.7-270623.1-271645.4-272669.8-273696.3
 S, KJ/(KG)(K)   105.2837 101.5425 101.7382 101.9360 102.1359 102.3379 102.5420 102.7483

 M, (1/n)           1.807    1.869    1.866    1.862    1.859    1.855    1.851    1.848
 (dLV/dLP)t      -1.05110 -1.03616 -1.03700 -1.03785 -1.03872 -1.03960 -1.04049 -1.04139
 (dLV/dLT)p        1.8242   1.6073   1.6196   1.6321   1.6447   1.6573   1.6702   1.6831
 Cp, KJ/(KG)(K)   80.2328  64.2364  65.1203  66.0136  66.9162  67.8280  68.7490  69.6791
 GAMMAs            1.1624   1.1665   1.1662   1.1659   1.1656   1.1654   1.1651   1.1649
 SON VEL,M/SEC     4289.4   4138.0   4147.6   4157.2   4167.0   4176.9   4186.8   4196.9

 TRANSPORT PROPERTIES (GASES ONLY)
   CONDUCTIVITY IN UNITS OF MILLIWATTS/(CM)(K)

 VISC,MILLIPOISE  0.55872  0.52859  0.53060  0.53261  0.53463  0.53666  0.53869  0.54073

  WITH EQUILIBRIUM REACTIONS

 Cp, KJ/(KG)(K)   80.2328  64.2364  65.1203  66.0136  66.9162  67.8280  68.7490  69.6791
 CONDUCTIVITY     94.4884  72.9588  74.1930  75.4388  76.6960  77.9643  79.2435  80.5332
 PRANDTL NUMBER    0.4744   0.4654   0.4657   0.4661   0.4665   0.4669   0.4673   0.4678

  WITH FROZEN REACTIONS

 Cp, KJ/(KG)(K)   19.0615  18.8652  18.8785  18.8918  18.9051  18.9184  18.9317  18.9451
 CONDUCTIVITY     15.3053  14.3465  14.4113  14.4762  14.5411  14.6062  14.6714  14.7366
 PRANDTL NUMBER    0.6958   0.6951   0.6951   0.6951   0.6951   0.6951   0.6951   0.6951

 MOLE FRACTIONS

 *H               0.20716  0.14553  0.14897  0.15246  0.15600  0.15960  0.16325  0.16695
 *H2              0.79284  0.85447  0.85103  0.84754  0.84400  0.84040  0.83675  0.83305

  * THERMODYNAMIC PROPERTIES FITTED TO 20000.K

 NOTE. WEIGHT FRACTION OF FUEL IN TOTAL FUELS AND OF OXIDANT IN TOTAL OXIDANTS









               THERMODYNAMIC EQUILIBRIUM PROPERTIES AT ASSIGNED

                           TEMPERATURE AND PRESSURE

 CASE =                

             REACTANT                    WT FRACTION      ENERGY      TEMP
                                          (SEE NOTE)     KJ/KG-MOL      K  
             H2                           1.0000000         0.000      0.000

 O/F=    0.00000  %FUEL=100.000000  R,EQ.RATIO= 0.000000  PHI,EQ.RATIO= 0.000000

 THERMODYNAMIC PROPERTIES

 P, BAR            5.4000   5.4000   5.4000   5.4000   5.4000   5.4000   5.4000   5.4000
 T, K             3370.00  3380.00  3390.00  3400.00  3410.00  3420.00  3430.00  3440.00
 RHO, KG/CU M    3.5534-2 3.5355-2 3.5177-2 3.4998-2 3.4819-2 3.4641-2 3.4462-2 3.4284-2
 H, KJ/KG         72239.5  72950.5  73670.9  74400.9  75140.7  75890.2  76649.6  77418.9
 U, KJ/KG         57042.9  57677.0  58319.8  58971.5  59632.0  60301.6  60980.2  61667.9
 G, KJ/KG       -274724.8-275755.4-276788.2-277823.0-278860.1-279899.3-280940.7-281984.4
 S, KJ/(KG)(K)   102.9568 103.1674 103.3803 103.5953 103.8125 104.0320 104.2537 104.4777

 M, (1/n)           1.844    1.840    1.836    1.832    1.828    1.824    1.820    1.816
 (dLV/dLP)t      -1.04230 -1.04323 -1.04416 -1.04511 -1.04607 -1.04703 -1.04801 -1.04900
 (dLV/dLT)p        1.6962   1.7093   1.7226   1.7360   1.7494   1.7630   1.7767   1.7904
 Cp, KJ/(KG)(K)   70.6180  71.5658  72.5223  73.4874  74.4610  75.4428  76.4328  77.4307
 GAMMAs            1.1647   1.1645   1.1643   1.1641   1.1640   1.1638   1.1637   1.1635
 SON VEL,M/SEC     4207.1   4217.3   4227.7   4238.1   4248.7   4259.4   4270.1   4281.0

 TRANSPORT PROPERTIES (GASES ONLY)
   CONDUCTIVITY IN UNITS OF MILLIWATTS/(CM)(K)

 VISC,MILLIPOISE  0.54277  0.54482  0.54687  0.54893  0.55098  0.55305  0.55511  0.55718

  WITH EQUILIBRIUM REACTIONS

 Cp, KJ/(KG)(K)   70.6180  71.5658  72.5223  73.4874  74.4610  75.4428  76.4328  77.4307
 CONDUCTIVITY     81.8333  83.1434  84.4631  85.7922  87.1303  88.4772  89.8323  91.1953
 PRANDTL NUMBER    0.4684   0.4690   0.4696   0.4702   0.4709   0.4716   0.4723   0.4731

  WITH FROZEN REACTIONS

 Cp, KJ/(KG)(K)   18.9584  18.9717  18.9851  18.9984  19.0118  19.0252  19.0386  19.0519
 CONDUCTIVITY     14.8019  14.8672  14.9325  14.9978  15.0631  15.1284  15.1936  15.2587
 PRANDTL NUMBER    0.6952   0.6952   0.6953   0.6953   0.6954   0.6955   0.6956   0.6957

 MOLE FRACTIONS

 *H               0.17070  0.17450  0.17836  0.18227  0.18623  0.19024  0.19430  0.19842
 *H2              0.82930  0.82550  0.82164  0.81773  0.81377  0.80976  0.80570  0.80158

  * THERMODYNAMIC PROPERTIES FITTED TO 20000.K

 NOTE. WEIGHT FRACTION OF FUEL IN TOTAL FUELS AND OF OXIDANT IN TOTAL OXIDANTS









               THERMODYNAMIC EQUILIBRIUM PROPERTIES AT ASSIGNED

                           TEMPERATURE AND PRESSURE

 CASE =                

             REACTANT                    WT FRACTION      ENERGY      TEMP
                                          (SEE NOTE)     KJ/KG-MOL      K  
             H2                           1.0000000         0.000      0.000

 O/F=    0.00000  %FUEL=100.000000  R,EQ.RATIO= 0.000000  PHI,EQ.RATIO= 0.000000

 THERMODYNAMIC PROPERTIES

 P, BAR            6.0000   6.0000   6.0000   6.0000   6.0000   6.0000   6.0000   6.0000
 T, K             3300.00  3310.00  3320.00  3330.00  3340.00  3350.00  3360.00  3370.00
 RHO, KG/CU M    4.1027-2 4.0831-2 4.0635-2 4.0439-2 4.0243-2 4.0047-2 3.9851-2 3.9655-2
 H, KJ/KG         66606.9  67230.5  67862.6  68503.2  69152.5  69810.5  70477.3  71153.1
 U, KJ/KG         51982.5  52535.8  53096.9  53665.9  54242.9  54827.9  55421.1  56022.5
 G, KJ/KG       -266024.3-267033.2-268044.0-269056.7-270071.4-271088.0-272106.6-273127.2
 S, KJ/(KG)(K)   100.7973 100.9860 101.1767 101.3693 101.5640 101.7607 101.9595 102.1603

 M, (1/n)           1.876    1.873    1.869    1.866    1.863    1.859    1.855    1.852
 (dLV/dLP)t      -1.03446 -1.03527 -1.03609 -1.03692 -1.03776 -1.03862 -1.03948 -1.04036
 (dLV/dLT)p        1.5788   1.5906   1.6026   1.6147   1.6269   1.6392   1.6516   1.6642
 Cp, KJ/(KG)(K)   61.9403  62.7822  63.6332  64.4933  65.3623  66.2402  67.1269  68.0224
 GAMMAs            1.1681   1.1677   1.1674   1.1671   1.1669   1.1666   1.1663   1.1661
 SON VEL,M/SEC     4133.1   4142.4   4151.9   4161.4   4171.0   4180.7   4190.5   4200.4

 TRANSPORT PROPERTIES (GASES ONLY)
   CONDUCTIVITY IN UNITS OF MILLIWATTS/(CM)(K)

 VISC,MILLIPOISE  0.52715  0.52914  0.53113  0.53313  0.53514  0.53715  0.53918  0.54120

  WITH EQUILIBRIUM REACTIONS

 Cp, KJ/(KG)(K)   61.9403  62.7822  63.6332  64.4933  65.3623  66.2402  67.1269  68.0224
 CONDUCTIVITY     70.1629  71.3495  72.5476  73.7572  74.9779  76.2096  77.4520  78.7048
 PRANDTL NUMBER    0.4654   0.4656   0.4659   0.4662   0.4665   0.4669   0.4673   0.4677

  WITH FROZEN REACTIONS

 Cp, KJ/(KG)(K)   18.8576  18.8707  18.8839  18.8970  18.9102  18.9233  18.9365  18.9497
 CONDUCTIVITY     14.2996  14.3639  14.4283  14.4929  14.5576  14.6224  14.6873  14.7523
 PRANDTL NUMBER    0.6952   0.6952   0.6951   0.6951   0.6951   0.6951   0.6952   0.6952

 MOLE FRACTIONS

 *H               0.13862  0.14191  0.14525  0.14864  0.15208  0.15558  0.15912  0.16272
 *H2              0.86138  0.85809  0.85475  0.85136  0.84792  0.84442  0.84088  0.83728

  * THERMODYNAMIC PROPERTIES FITTED TO 20000.K

 NOTE. WEIGHT FRACTION OF FUEL IN TOTAL FUELS AND OF OXIDANT IN TOTAL OXIDANTS









               THERMODYNAMIC EQUILIBRIUM PROPERTIES AT ASSIGNED

                           TEMPERATURE AND PRESSURE

 CASE =                

             REACTANT                    WT FRACTION      ENERGY      TEMP
                                          (SEE NOTE)     KJ/KG-MOL      K  
             H2                           1.0000000         0.000      0.000

 O/F=    0.00000  %FUEL=100.000000  R,EQ.RATIO= 0.000000  PHI,EQ.RATIO= 0.000000

 THERMODYNAMIC PROPERTIES

 P, BAR            6.0000   6.0000   6.0000   6.0000   6.0000   6.0000   6.0000   6.7000
 T, K             3380.00  3390.00  3400.00  3410.00  3420.00  3430.00  3440.00  3300.00
 RHO, KG/CU M    3.9459-2 3.9263-2 3.9068-2 3.8872-2 3.8676-2 3.8481-2 3.8286-2 4.5984-2
 H, KJ/KG         71837.8  72531.6  73234.6  73946.8  74668.4  75399.4  76139.9  65697.7
 U, KJ/KG         56632.1  57250.2  57876.6  58511.6  59155.1  59807.3  60468.2  51127.4
 G, KJ/KG       -274149.8-275174.5-276201.2-277230.0-278260.9-279293.9-280329.1-264413.5
 S, KJ/(KG)(K)   102.3632 102.5682 102.7752 102.9844 103.1957 103.4091 103.6247 100.0337

 M, (1/n)           1.848    1.844    1.841    1.837    1.833    1.829    1.825    1.883
 (dLV/dLP)t      -1.04125 -1.04215 -1.04306 -1.04398 -1.04491 -1.04586 -1.04681 -1.03276
 (dLV/dLT)p        1.6768   1.6896   1.7025   1.7155   1.7286   1.7418   1.7550   1.5503
 Cp, KJ/(KG)(K)   68.9265  69.8391  70.7601  71.6894  72.6269  73.5725  74.5260  59.6555
 GAMMAs            1.1659   1.1657   1.1655   1.1653   1.1651   1.1649   1.1648   1.1697
 SON VEL,M/SEC     4210.4   4220.5   4230.7   4241.0   4251.4   4261.9   4272.5   4128.4

 TRANSPORT PROPERTIES (GASES ONLY)
   CONDUCTIVITY IN UNITS OF MILLIWATTS/(CM)(K)

 VISC,MILLIPOISE  0.54323  0.54527  0.54731  0.54936  0.55141  0.55346  0.55552  0.52568

  WITH EQUILIBRIUM REACTIONS

 Cp, KJ/(KG)(K)   68.9265  69.8391  70.7601  71.6894  72.6269  73.5725  74.5260  59.6555
 CONDUCTIVITY     79.9679  81.2409  82.5235  83.8154  85.1164  86.4261  87.7442  67.3584
 PRANDTL NUMBER    0.4682   0.4687   0.4693   0.4699   0.4705   0.4711   0.4718   0.4656

  WITH FROZEN REACTIONS

 Cp, KJ/(KG)(K)   18.9629  18.9761  18.9892  19.0024  19.0157  19.0289  19.0421  18.8500
 CONDUCTIVITY     14.8173  14.8824  14.9475  15.0126  15.0778  15.1429  15.2079  14.2513
 PRANDTL NUMBER    0.6952   0.6953   0.6953   0.6954   0.6954   0.6955   0.6956   0.6953

 MOLE FRACTIONS

 *H               0.16636  0.17006  0.17381  0.17761  0.18146  0.18535  0.18930  0.13170
 *H2              0.83364  0.82994  0.82619  0.82239  0.81854  0.81465  0.81070  0.86830

  * THERMODYNAMIC PROPERTIES FITTED TO 20000.K

 NOTE. WEIGHT FRACTION OF FUEL IN TOTAL FUELS AND OF OXIDANT IN TOTAL OXIDANTS









               THERMODYNAMIC EQUILIBRIUM PROPERTIES AT ASSIGNED

                           TEMPERATURE AND PRESSURE

 CASE =                

             REACTANT                    WT FRACTION      ENERGY      TEMP
                                          (SEE NOTE)     KJ/KG-MOL      K  
             H2                           1.0000000         0.000      0.000

 O/F=    0.00000  %FUEL=100.000000  R,EQ.RATIO= 0.000000  PHI,EQ.RATIO= 0.000000

 THERMODYNAMIC PROPERTIES

 P, BAR            6.7000   6.7000   6.7000   6.7000   6.7000   6.7000   6.7000   6.7000
 T, K             3310.00  3320.00  3330.00  3340.00  3350.00  3360.00  3370.00  3380.00
 RHO, KG/CU M    4.5768-2 4.5552-2 4.5336-2 4.5121-2 4.4905-2 4.4689-2 4.4474-2 4.4259-2
 H, KJ/KG         66298.3  66906.9  67523.6  68148.5  68781.8  69423.4  70073.5  70732.2
 U, KJ/KG         51659.2  52198.4  52745.1  53299.4  53861.4  54431.0  55008.5  55593.9
 G, KJ/KG       -265414.7-266417.8-267422.7-268429.5-269438.2-270448.7-271461.2-272475.6
 S, KJ/(KG)(K)   100.2154 100.3990 100.5845 100.7719 100.9612 101.1524 101.3456 101.5408

 M, (1/n)           1.880    1.877    1.873    1.870    1.867    1.863    1.860    1.856
 (dLV/dLP)t      -1.03353 -1.03432 -1.03511 -1.03592 -1.03674 -1.03757 -1.03841 -1.03926
 (dLV/dLT)p        1.5616   1.5730   1.5846   1.5963   1.6081   1.6200   1.6320   1.6442
 Cp, KJ/(KG)(K)   60.4553  61.2639  62.0813  62.9073  63.7419  64.5850  65.4367  66.2967
 GAMMAs            1.1694   1.1691   1.1687   1.1684   1.1682   1.1679   1.1676   1.1674
 SON VEL,M/SEC     4137.5   4146.7   4156.0   4165.4   4174.8   4184.4   4194.1   4203.8

 TRANSPORT PROPERTIES (GASES ONLY)
   CONDUCTIVITY IN UNITS OF MILLIWATTS/(CM)(K)

 VISC,MILLIPOISE  0.52764  0.52962  0.53160  0.53358  0.53558  0.53758  0.53959  0.54160

  WITH EQUILIBRIUM REACTIONS

 Cp, KJ/(KG)(K)   60.4553  61.2639  62.0813  62.9073  63.7419  64.5850  65.4367  66.2967
 CONDUCTIVITY     68.4963  69.6456  70.8063  71.9782  73.1610  74.3546  75.5587  76.7732
 PRANDTL NUMBER    0.4657   0.4659   0.4661   0.4663   0.4666   0.4669   0.4673   0.4677

  WITH FROZEN REACTIONS

 Cp, KJ/(KG)(K)   18.8630  18.8760  18.8890  18.9020  18.9150  18.9280  18.9410  18.9540
 CONDUCTIVITY     14.3151  14.3790  14.4431  14.5073  14.5717  14.6362  14.7008  14.7655
 PRANDTL NUMBER    0.6953   0.6953   0.6952   0.6952   0.6952   0.6952   0.6952   0.6952

 MOLE FRACTIONS

 *H               0.13484  0.13803  0.14127  0.14456  0.14789  0.15128  0.15472  0.15820
 *H2              0.86516  0.86197  0.85873  0.85544  0.85211  0.84872  0.84528  0.84180

  * THERMODYNAMIC PROPERTIES FITTED TO 20000.K

 NOTE. WEIGHT FRACTION OF FUEL IN TOTAL FUELS AND OF OXIDANT IN TOTAL OXIDANTS









               THERMODYNAMIC EQUILIBRIUM PROPERTIES AT ASSIGNED

                           TEMPERATURE AND PRESSURE

 CASE =                

             REACTANT                    WT FRACTION      ENERGY      TEMP
                                          (SEE NOTE)     KJ/KG-MOL      K  
             H2                           1.0000000         0.000      0.000

 O/F=    0.00000  %FUEL=100.000000  R,EQ.RATIO= 0.000000  PHI,EQ.RATIO= 0.000000

 THERMODYNAMIC PROPERTIES

 P, BAR            6.7000   6.7000   6.7000   6.7000   6.7000   6.7000   7.4000   7.4000
 T, K             3390.00  3400.00  3410.00  3420.00  3430.00  3440.00  3300.00  3310.00
 RHO, KG/CU M    4.4043-2 4.3828-2 4.3613-2 4.3398-2 4.3183-2 4.2968-2 5.0950-2 5.0715-2
 H, KJ/KG         71399.5  72075.5  72760.3  73454.0  74156.7  74868.5  64920.2  65501.0
 U, KJ/KG         56187.2  56788.5  57398.0  58015.6  58641.5  59275.6  50396.2  50909.5
 G, KJ/KG       -273492.0-274510.4-275530.8-276553.2-277577.6-278604.1-262967.9-263962.4
 S, KJ/(KG)(K)   101.7379 101.9370 102.1382 102.3413 102.5465 102.7537  99.3600  99.5358

 M, (1/n)           1.853    1.849    1.846    1.842    1.838    1.834    1.889    1.886
 (dLV/dLP)t      -1.04012 -1.04099 -1.04188 -1.04277 -1.04368 -1.04460 -1.03129 -1.03204
 (dLV/dLT)p        1.6565   1.6688   1.6813   1.6939   1.7066   1.7194   1.5256   1.5365
 Cp, KJ/(KG)(K)   67.1650  68.0416  68.9262  69.8189  70.7195  71.6279  57.6985  58.4620
 GAMMAs            1.1671   1.1669   1.1667   1.1665   1.1663   1.1662   1.1713   1.1709
 SON VEL,M/SEC     4213.6   4223.6   4233.6   4243.7   4253.9   4264.2   4124.6   4133.5

 TRANSPORT PROPERTIES (GASES ONLY)
   CONDUCTIVITY IN UNITS OF MILLIWATTS/(CM)(K)

 VISC,MILLIPOISE  0.54362  0.54565  0.54768  0.54971  0.55175  0.55380  0.52439  0.52633

  WITH EQUILIBRIUM REACTIONS

 Cp, KJ/(KG)(K)   67.1650  68.0415  68.9262  69.8189  70.7195  71.6279  57.6985  58.4620
 CONDUCTIVITY     77.9977  79.2321  80.4761  81.7293  82.9916  84.2626  64.9384  66.0334
 PRANDTL NUMBER    0.4681   0.4686   0.4691   0.4696   0.4702   0.4708   0.4659   0.4660

  WITH FROZEN REACTIONS

 Cp, KJ/(KG)(K)   18.9671  18.9801  18.9931  19.0062  19.0192  19.0323  18.8435  18.8564
 CONDUCTIVITY     14.8302  14.8951  14.9600  15.0249  15.0898  15.1547  14.2087  14.2719
 PRANDTL NUMBER    0.6953   0.6953   0.6953   0.6954   0.6954   0.6955   0.6954   0.6954

 MOLE FRACTIONS

 *H               0.16174  0.16532  0.16895  0.17264  0.17637  0.18015  0.12575  0.12876
 *H2              0.83826  0.83468  0.83105  0.82736  0.82363  0.81985  0.87425  0.87124

  * THERMODYNAMIC PROPERTIES FITTED TO 20000.K

 NOTE. WEIGHT FRACTION OF FUEL IN TOTAL FUELS AND OF OXIDANT IN TOTAL OXIDANTS









               THERMODYNAMIC EQUILIBRIUM PROPERTIES AT ASSIGNED

                           TEMPERATURE AND PRESSURE

 CASE =                

             REACTANT                    WT FRACTION      ENERGY      TEMP
                                          (SEE NOTE)     KJ/KG-MOL      K  
             H2                           1.0000000         0.000      0.000

 O/F=    0.00000  %FUEL=100.000000  R,EQ.RATIO= 0.000000  PHI,EQ.RATIO= 0.000000

 THERMODYNAMIC PROPERTIES

 P, BAR            7.4000   7.4000   7.4000   7.4000   7.4000   7.4000   7.4000   7.4000
 T, K             3320.00  3330.00  3340.00  3350.00  3360.00  3370.00  3380.00  3390.00
 RHO, KG/CU M    5.0479-2 5.0244-2 5.0009-2 4.9774-2 4.9539-2 4.9304-2 4.9070-2 4.8835-2
 H, KJ/KG         66089.5  66685.7  67289.8  67901.8  68521.9  69150.0  69786.3  70430.8
 U, KJ/KG         51430.0  51957.6  52492.4  53034.6  53584.1  54141.1  54705.6  55277.8
 G, KJ/KG       -264958.6-265956.7-266956.5-267958.1-268961.6-269967.0-270974.2-271983.3
 S, KJ/(KG)(K)    99.7133  99.8926 100.0737 100.2567 100.4415 100.6282 100.8167 101.0071

 M, (1/n)           1.883    1.880    1.877    1.873    1.870    1.867    1.864    1.860
 (dLV/dLP)t      -1.03279 -1.03355 -1.03433 -1.03511 -1.03591 -1.03672 -1.03754 -1.03837
 (dLV/dLT)p        1.5475   1.5586   1.5698   1.5812   1.5927   1.6043   1.6160   1.6278
 Cp, KJ/(KG)(K)   59.2340  60.0145  60.8033  61.6005  62.4060  63.2197  64.0415  64.8715
 GAMMAs            1.1706   1.1702   1.1699   1.1696   1.1693   1.1690   1.1688   1.1685
 SON VEL,M/SEC     4142.5   4151.6   4160.7   4170.0   4179.3   4188.8   4198.3   4207.9

 TRANSPORT PROPERTIES (GASES ONLY)
   CONDUCTIVITY IN UNITS OF MILLIWATTS/(CM)(K)

 VISC,MILLIPOISE  0.52828  0.53025  0.53221  0.53419  0.53617  0.53816  0.54016  0.54216

  WITH EQUILIBRIUM REACTIONS

 Cp, KJ/(KG)(K)   59.2340  60.0145  60.8033  61.6005  62.4060  63.2197  64.0415  64.8715
 CONDUCTIVITY     67.1399  68.2576  69.3863  70.5261  71.6765  72.8376  74.0090  75.1905
 PRANDTL NUMBER    0.4661   0.4662   0.4664   0.4666   0.4668   0.4671   0.4674   0.4678

  WITH FROZEN REACTIONS

 Cp, KJ/(KG)(K)   18.8692  18.8821  18.8950  18.9078  18.9207  18.9336  18.9465  18.9594
 CONDUCTIVITY     14.3354  14.3990  14.4628  14.5267  14.5908  14.6550  14.7193  14.7837
 PRANDTL NUMBER    0.6954   0.6953   0.6953   0.6953   0.6953   0.6953   0.6953   0.6953

 MOLE FRACTIONS

 *H               0.13181  0.13492  0.13807  0.14127  0.14452  0.14782  0.15116  0.15455
 *H2              0.86819  0.86508  0.86193  0.85873  0.85548  0.85218  0.84884  0.84545

  * THERMODYNAMIC PROPERTIES FITTED TO 20000.K

 NOTE. WEIGHT FRACTION OF FUEL IN TOTAL FUELS AND OF OXIDANT IN TOTAL OXIDANTS









               THERMODYNAMIC EQUILIBRIUM PROPERTIES AT ASSIGNED

                           TEMPERATURE AND PRESSURE

 CASE =                

             REACTANT                    WT FRACTION      ENERGY      TEMP
                                          (SEE NOTE)     KJ/KG-MOL      K  
             H2                           1.0000000         0.000      0.000

 O/F=    0.00000  %FUEL=100.000000  R,EQ.RATIO= 0.000000  PHI,EQ.RATIO= 0.000000

 THERMODYNAMIC PROPERTIES

 P, BAR            7.4000   7.4000   7.4000   7.4000   7.4000   8.2500   8.2500   8.2500
 T, K             3400.00  3410.00  3420.00  3430.00  3440.00  3300.00  3310.00  3320.00
 RHO, KG/CU M    4.8601-2 4.8366-2 4.8132-2 4.7898-2 4.7664-2 5.6991-2 5.6732-2 5.6473-2
 H, KJ/KG         71083.7  71745.0  72414.9  73093.3  73780.3  64112.0  64672.2  65239.8
 U, KJ/KG         55857.6  56445.1  57040.5  57643.7  58254.9  49636.1  50130.3  50631.2
 G, KJ/KG       -272994.3-274007.3-275022.2-276039.1-277058.0-261391.3-262378.5-263367.4
 S, KJ/(KG)(K)   101.1994 101.3937 101.5898 101.7879 101.9879  98.6374  98.8069  98.9781

 M, (1/n)           1.857    1.853    1.850    1.846    1.842    1.895    1.893    1.890
 (dLV/dLP)t      -1.03921 -1.04006 -1.04092 -1.04179 -1.04268 -1.02976 -1.03047 -1.03119
 (dLV/dLT)p        1.6397   1.6517   1.6638   1.6761   1.6884   1.4998   1.5102   1.5207
 Cp, KJ/(KG)(K)   65.7095  66.5553  67.4091  68.2706  69.1397  55.6613  56.3869  57.1205
 GAMMAs            1.1683   1.1680   1.1678   1.1676   1.1674   1.1730   1.1727   1.1723
 SON VEL,M/SEC     4217.6   4227.4   4237.3   4247.2   4257.3   4120.8   4129.5   4138.3

 TRANSPORT PROPERTIES (GASES ONLY)
   CONDUCTIVITY IN UNITS OF MILLIWATTS/(CM)(K)

 VISC,MILLIPOISE  0.54417  0.54619  0.54821  0.55023  0.55226  0.52301  0.52493  0.52686

  WITH EQUILIBRIUM REACTIONS

 Cp, KJ/(KG)(K)   65.7095  66.5553  67.4091  68.2706  69.1397  55.6613  56.3869  57.1205
 CONDUCTIVITY     76.3820  77.5832  78.7939  80.0138  81.2427  62.4016  63.4511  64.5117
 PRANDTL NUMBER    0.4681   0.4686   0.4690   0.4695   0.4700   0.4665   0.4665   0.4665

  WITH FROZEN REACTIONS

 Cp, KJ/(KG)(K)   18.9723  18.9852  18.9981  19.0110  19.0239  18.8368  18.8495  18.8622
 CONDUCTIVITY     14.8482  14.9128  14.9775  15.0422  15.1069  14.1630  14.2257  14.2885
 PRANDTL NUMBER    0.6953   0.6953   0.6954   0.6954   0.6955   0.6956   0.6956   0.6955

 MOLE FRACTIONS

 *H               0.15800  0.16149  0.16502  0.16861  0.17224  0.11952  0.12239  0.12530
 *H2              0.84200  0.83851  0.83498  0.83139  0.82776  0.88048  0.87761  0.87470

  * THERMODYNAMIC PROPERTIES FITTED TO 20000.K

 NOTE. WEIGHT FRACTION OF FUEL IN TOTAL FUELS AND OF OXIDANT IN TOTAL OXIDANTS









               THERMODYNAMIC EQUILIBRIUM PROPERTIES AT ASSIGNED

                           TEMPERATURE AND PRESSURE

 CASE =                

             REACTANT                    WT FRACTION      ENERGY      TEMP
                                          (SEE NOTE)     KJ/KG-MOL      K  
             H2                           1.0000000         0.000      0.000

 O/F=    0.00000  %FUEL=100.000000  R,EQ.RATIO= 0.000000  PHI,EQ.RATIO= 0.000000

 THERMODYNAMIC PROPERTIES

 P, BAR            8.2500   8.2500   8.2500   8.2500   8.2500   8.2500   8.2500   8.2500
 T, K             3330.00  3340.00  3350.00  3360.00  3370.00  3380.00  3390.00  3400.00
 RHO, KG/CU M    5.6215-2 5.5956-2 5.5698-2 5.5440-2 5.5182-2 5.4924-2 5.4667-2 5.4409-2
 H, KJ/KG         65814.7  66397.1  66987.0  67584.5  68189.7  68802.7  69423.6  70052.4
 U, KJ/KG         51138.9  51653.4  52175.0  52703.5  53239.2  53782.0  54332.1  54889.4
 G, KJ/KG       -264358.1-265350.5-266344.6-267340.5-268338.2-269337.7-270339.1-271342.2
 S, KJ/(KG)(K)    99.1510  99.3256  99.5020  99.6801  99.8599 100.0415 100.2250 100.4102

 M, (1/n)           1.887    1.884    1.880    1.877    1.874    1.871    1.868    1.864
 (dLV/dLP)t      -1.03192 -1.03266 -1.03341 -1.03417 -1.03495 -1.03573 -1.03653 -1.03733
 (dLV/dLT)p        1.5314   1.5421   1.5530   1.5640   1.5751   1.5863   1.5976   1.6091
 Cp, KJ/(KG)(K)   57.8623  58.6122  59.3701  60.1360  60.9099  61.6916  62.4812  63.2786
 GAMMAs            1.1719   1.1716   1.1712   1.1709   1.1706   1.1703   1.1700   1.1698
 SON VEL,M/SEC     4147.2   4156.1   4165.1   4174.3   4183.5   4192.7   4202.1   4211.6

 TRANSPORT PROPERTIES (GASES ONLY)
   CONDUCTIVITY IN UNITS OF MILLIWATTS/(CM)(K)

 VISC,MILLIPOISE  0.52880  0.53075  0.53270  0.53467  0.53664  0.53861  0.54060  0.54259

  WITH EQUILIBRIUM REACTIONS

 Cp, KJ/(KG)(K)   57.8623  58.6122  59.3701  60.1360  60.9099  61.6916  62.4812  63.2786
 CONDUCTIVITY     65.5835  66.6663  67.7599  68.8642  69.9790  71.1041  72.2395  73.3848
 PRANDTL NUMBER    0.4665   0.4666   0.4667   0.4669   0.4671   0.4673   0.4676   0.4679

  WITH FROZEN REACTIONS

 Cp, KJ/(KG)(K)   18.8749  18.8877  18.9004  18.9132  18.9259  18.9386  18.9514  18.9641
 CONDUCTIVITY     14.3516  14.4148  14.4782  14.5418  14.6056  14.6694  14.7334  14.7975
 PRANDTL NUMBER    0.6955   0.6954   0.6954   0.6954   0.6954   0.6954   0.6954   0.6954

 MOLE FRACTIONS

 *H               0.12827  0.13128  0.13433  0.13744  0.14059  0.14378  0.14703  0.15032
 *H2              0.87173  0.86872  0.86567  0.86256  0.85941  0.85622  0.85297  0.84968

  * THERMODYNAMIC PROPERTIES FITTED TO 20000.K

 NOTE. WEIGHT FRACTION OF FUEL IN TOTAL FUELS AND OF OXIDANT IN TOTAL OXIDANTS









               THERMODYNAMIC EQUILIBRIUM PROPERTIES AT ASSIGNED

                           TEMPERATURE AND PRESSURE

 CASE =                

             REACTANT                    WT FRACTION      ENERGY      TEMP
                                          (SEE NOTE)     KJ/KG-MOL      K  
             H2                           1.0000000         0.000      0.000

 O/F=    0.00000  %FUEL=100.000000  R,EQ.RATIO= 0.000000  PHI,EQ.RATIO= 0.000000

 THERMODYNAMIC PROPERTIES

 P, BAR            8.2500   8.2500   8.2500   8.2500   9.1000   9.1000   9.1000   9.1000
 T, K             3410.00  3420.00  3430.00  3440.00  3300.00  3310.00  3320.00  3330.00
 RHO, KG/CU M    5.4152-2 5.3894-2 5.3637-2 5.3380-2 6.3043-2 6.2760-2 6.2478-2 6.2197-2
 H, KJ/KG         70689.2  71334.1  71987.1  72648.4  63419.4  63962.0  64511.6  65068.2
 U, KJ/KG         55454.1  56026.3  56606.0  57193.2  48984.8  49462.4  49946.6  50437.2
 G, KJ/KG       -272347.3-273354.2-274363.0-275373.7-259973.8-260954.6-261937.1-262921.2
 S, KJ/(KG)(K)   100.5972 100.7860 100.9767 101.1692  97.9980  98.1621  98.3279  98.4953

 M, (1/n)           1.861    1.858    1.854    1.851    1.901    1.898    1.895    1.892
 (dLV/dLP)t      -1.03815 -1.03897 -1.03981 -1.04066 -1.02843 -1.02911 -1.02980 -1.03050
 (dLV/dLT)p        1.6206   1.6322   1.6440   1.6558   1.4775   1.4875   1.4976   1.5078
 Cp, KJ/(KG)(K)   64.0837  64.8963  65.7166  66.5443  53.9134  54.6062  55.3068  56.0152
 GAMMAs            1.1695   1.1693   1.1691   1.1688   1.1747   1.1742   1.1739   1.1735
 SON VEL,M/SEC     4221.1   4230.7   4240.5   4250.3   4117.7   4126.3   4134.9   4143.6

 TRANSPORT PROPERTIES (GASES ONLY)
   CONDUCTIVITY IN UNITS OF MILLIWATTS/(CM)(K)

 VISC,MILLIPOISE  0.54458  0.54658  0.54859  0.55061  0.52181  0.52371  0.52562  0.52754

  WITH EQUILIBRIUM REACTIONS

 Cp, KJ/(KG)(K)   64.0836  64.8963  65.7166  66.5443  53.9134  54.6062  55.3068  56.0152
 CONDUCTIVITY     74.5399  75.7046  76.8787  78.0619  60.2106  61.2200  62.2405  63.2720
 PRANDTL NUMBER    0.4682   0.4685   0.4689   0.4694   0.4672   0.4671   0.4671   0.4670

  WITH FROZEN REACTIONS

 Cp, KJ/(KG)(K)   18.9769  18.9896  19.0024  19.0152  18.8310  18.8436  18.8562  18.8688
 CONDUCTIVITY     14.8618  14.9261  14.9905  15.0549  14.1227  14.1848  14.2472  14.3097
 PRANDTL NUMBER    0.6954   0.6954   0.6954   0.6954   0.6958   0.6957   0.6957   0.6956

 MOLE FRACTIONS

 *H               0.15365  0.15704  0.16047  0.16394  0.11414  0.11690  0.11969  0.12253
 *H2              0.84635  0.84296  0.83953  0.83606  0.88586  0.88310  0.88031  0.87747

  * THERMODYNAMIC PROPERTIES FITTED TO 20000.K

 NOTE. WEIGHT FRACTION OF FUEL IN TOTAL FUELS AND OF OXIDANT IN TOTAL OXIDANTS









               THERMODYNAMIC EQUILIBRIUM PROPERTIES AT ASSIGNED

                           TEMPERATURE AND PRESSURE

 CASE =                

             REACTANT                    WT FRACTION      ENERGY      TEMP
                                          (SEE NOTE)     KJ/KG-MOL      K  
             H2                           1.0000000         0.000      0.000

 O/F=    0.00000  %FUEL=100.000000  R,EQ.RATIO= 0.000000  PHI,EQ.RATIO= 0.000000

 THERMODYNAMIC PROPERTIES

 P, BAR            9.1000   9.1000   9.1000   9.1000   9.1000   9.1000   9.1000   9.1000
 T, K             3340.00  3350.00  3360.00  3370.00  3380.00  3390.00  3400.00  3410.00
 RHO, KG/CU M    6.1915-2 6.1634-2 6.1353-2 6.1072-2 6.0791-2 6.0510-2 6.0230-2 5.9950-2
 H, KJ/KG         65631.9  66202.8  66781.0  67366.6  67959.6  68560.1  69168.2  69783.9
 U, KJ/KG         50934.4  51438.2  51948.8  52466.1  52990.3  53521.4  54059.4  54604.6
 G, KJ/KG       -263907.0-264894.5-265883.7-266874.6-267867.3-268861.8-269858.0-270856.0
 S, KJ/(KG)(K)    98.6643  98.8350  99.0074  99.1814  99.3571  99.5345  99.7136  99.8944

 M, (1/n)           1.889    1.887    1.884    1.880    1.877    1.874    1.871    1.868
 (dLV/dLP)t      -1.03121 -1.03194 -1.03267 -1.03341 -1.03417 -1.03493 -1.03571 -1.03649
 (dLV/dLT)p        1.5182   1.5286   1.5392   1.5498   1.5606   1.5715   1.5825   1.5936
 Cp, KJ/(KG)(K)   56.7314  57.4554  58.1871  58.9265  59.6735  60.4281  61.1903  61.9600
 GAMMAs            1.1731   1.1728   1.1724   1.1721   1.1718   1.1715   1.1712   1.1709
 SON VEL,M/SEC     4152.3   4161.2   4170.1   4179.1   4188.2   4197.3   4206.6   4215.9

 TRANSPORT PROPERTIES (GASES ONLY)
   CONDUCTIVITY IN UNITS OF MILLIWATTS/(CM)(K)

 VISC,MILLIPOISE  0.52946  0.53140  0.53334  0.53529  0.53725  0.53921  0.54118  0.54316

  WITH EQUILIBRIUM REACTIONS

 Cp, KJ/(KG)(K)   56.7314  57.4554  58.1871  58.9265  59.6735  60.4281  61.1903  61.9600
 CONDUCTIVITY     64.3143  65.3673  66.4309  67.5050  68.5894  69.6839  70.7883  71.9026
 PRANDTL NUMBER    0.4670   0.4671   0.4672   0.4673   0.4674   0.4676   0.4678   0.4681

  WITH FROZEN REACTIONS

 Cp, KJ/(KG)(K)   18.8814  18.8941  18.9067  18.9193  18.9319  18.9445  18.9572  18.9698
 CONDUCTIVITY     14.3724  14.4353  14.4984  14.5617  14.6251  14.6887  14.7524  14.8163
 PRANDTL NUMBER    0.6956   0.6955   0.6955   0.6955   0.6955   0.6954   0.6954   0.6954

 MOLE FRACTIONS

 *H               0.12542  0.12835  0.13132  0.13435  0.13741  0.14052  0.14368  0.14688
 *H2              0.87458  0.87165  0.86868  0.86565  0.86259  0.85948  0.85632  0.85312

  * THERMODYNAMIC PROPERTIES FITTED TO 20000.K

 NOTE. WEIGHT FRACTION OF FUEL IN TOTAL FUELS AND OF OXIDANT IN TOTAL OXIDANTS









               THERMODYNAMIC EQUILIBRIUM PROPERTIES AT ASSIGNED

                           TEMPERATURE AND PRESSURE

 CASE =                

             REACTANT                    WT FRACTION      ENERGY      TEMP
                                          (SEE NOTE)     KJ/KG-MOL      K  
             H2                           1.0000000         0.000      0.000

 O/F=    0.00000  %FUEL=100.000000  R,EQ.RATIO= 0.000000  PHI,EQ.RATIO= 0.000000

 THERMODYNAMIC PROPERTIES

 P, BAR            9.1000   9.1000   9.1000   10.000   10.000   10.000   10.000   10.000
 T, K             3420.00  3430.00  3440.00  3300.00  3310.00  3320.00  3330.00  3340.00
 RHO, KG/CU M    5.9670-2 5.9390-2 5.9110-2 6.9460-2 6.9153-2 6.8847-2 6.8541-2 6.8235-2
 H, KJ/KG         70407.4  71038.7  71677.9  62784.3  63310.7  63843.7  64383.5  64930.1
 U, KJ/KG         55156.8  55716.2  56282.8  48387.4  48850.0  49318.7  49793.7  50274.9
 G, KJ/KG       -271855.9-272857.6-273861.1-258614.3-259589.0-260565.3-261543.3-262522.8
 S, KJ/(KG)(K)   100.0770 100.2613 100.4474  97.3935  97.5528  97.7136  97.8759  98.0398

 M, (1/n)           1.865    1.861    1.858    1.906    1.903    1.900    1.898    1.895
 (dLV/dLP)t      -1.03729 -1.03809 -1.03891 -1.02721 -1.02786 -1.02852 -1.02920 -1.02988
 (dLV/dLT)p        1.6049   1.6162   1.6276   1.4570   1.4665   1.4763   1.4861   1.4960
 Cp, KJ/(KG)(K)   62.7371  63.5215  64.3133  52.3088  52.9713  53.6413  54.3190  55.0041
 GAMMAs            1.1707   1.1704   1.1702   1.1762   1.1758   1.1754   1.1750   1.1746
 SON VEL,M/SEC     4225.3   4234.8   4244.4   4115.1   4123.5   4131.9   4140.4   4149.0

 TRANSPORT PROPERTIES (GASES ONLY)
   CONDUCTIVITY IN UNITS OF MILLIWATTS/(CM)(K)

 VISC,MILLIPOISE  0.54515  0.54714  0.54914  0.52068  0.52256  0.52445  0.52635  0.52825

  WITH EQUILIBRIUM REACTIONS

 Cp, KJ/(KG)(K)   62.7371  63.5215  64.3133  52.3088  52.9713  53.6413  54.3190  55.0041
 CONDUCTIVITY     73.0265  74.1599  75.3024  58.1872  59.1592  60.1422  61.1359  62.1403
 PRANDTL NUMBER    0.4683   0.4687   0.4690   0.4681   0.4679   0.4678   0.4677   0.4676

  WITH FROZEN REACTIONS

 Cp, KJ/(KG)(K)   18.9824  18.9950  19.0077  18.8257  18.8382  18.8507  18.8632  18.8757
 CONDUCTIVITY     14.8802  14.9443  15.0084  14.0849  14.1464  14.2082  14.2702  14.3324
 PRANDTL NUMBER    0.6954   0.6954   0.6955   0.6959   0.6959   0.6958   0.6958   0.6957

 MOLE FRACTIONS

 *H               0.15013  0.15343  0.15677  0.10919  0.11183  0.11451  0.11724  0.12001
 *H2              0.84987  0.84657  0.84323  0.89081  0.88817  0.88549  0.88276  0.87999

  * THERMODYNAMIC PROPERTIES FITTED TO 20000.K

 NOTE. WEIGHT FRACTION OF FUEL IN TOTAL FUELS AND OF OXIDANT IN TOTAL OXIDANTS









               THERMODYNAMIC EQUILIBRIUM PROPERTIES AT ASSIGNED

                           TEMPERATURE AND PRESSURE

 CASE =                

             REACTANT                    WT FRACTION      ENERGY      TEMP
                                          (SEE NOTE)     KJ/KG-MOL      K  
             H2                           1.0000000         0.000      0.000

 O/F=    0.00000  %FUEL=100.000000  R,EQ.RATIO= 0.000000  PHI,EQ.RATIO= 0.000000

 THERMODYNAMIC PROPERTIES

 P, BAR            10.000   10.000   10.000   10.000   10.000   10.000   10.000   10.000
 T, K             3350.00  3360.00  3370.00  3380.00  3390.00  3400.00  3410.00  3420.00
 RHO, KG/CU M    6.7929-2 6.7624-2 6.7319-2 6.7014-2 6.6710-2 6.6405-2 6.6101-2 6.5797-2
 H, KJ/KG         65483.6  66044.1  66611.6  67186.2  67768.0  68357.1  68953.5  69557.3
 U, KJ/KG         50762.5  51256.5  51757.0  52264.0  52777.7  53298.0  53825.1  54359.0
 G, KJ/KG       -263504.1-264487.0-265471.5-266457.8-267445.8-268435.5-269426.9-270420.1
 S, KJ/(KG)(K)    98.2053  98.3723  98.5410  98.7112  98.8831  99.0566  99.2318  99.4086

 M, (1/n)           1.892    1.889    1.886    1.883    1.880    1.877    1.874    1.871
 (dLV/dLP)t      -1.03057 -1.03128 -1.03199 -1.03272 -1.03345 -1.03420 -1.03496 -1.03572
 (dLV/dLT)p        1.5061   1.5162   1.5265   1.5369   1.5474   1.5580   1.5687   1.5795
 Cp, KJ/(KG)(K)   55.6967  56.3968  57.1044  57.8193  58.5416  59.2712  60.0081  60.7522
 GAMMAs            1.1742   1.1739   1.1735   1.1732   1.1729   1.1726   1.1723   1.1720
 SON VEL,M/SEC     4157.7   4166.4   4175.2   4184.1   4193.1   4202.1   4211.3   4220.5

 TRANSPORT PROPERTIES (GASES ONLY)
   CONDUCTIVITY IN UNITS OF MILLIWATTS/(CM)(K)

 VISC,MILLIPOISE  0.53017  0.53209  0.53402  0.53596  0.53791  0.53986  0.54183  0.54379

  WITH EQUILIBRIUM REACTIONS

 Cp, KJ/(KG)(K)   55.6967  56.3968  57.1044  57.8193  58.5416  59.2712  60.0081  60.7522
 CONDUCTIVITY     63.1552  64.1807  65.2164  66.2624  67.3184  68.3844  69.4601  70.5455
 PRANDTL NUMBER    0.4676   0.4676   0.4676   0.4677   0.4678   0.4679   0.4681   0.4683

  WITH FROZEN REACTIONS

 Cp, KJ/(KG)(K)   18.8882  18.9007  18.9132  18.9257  18.9383  18.9508  18.9633  18.9758
 CONDUCTIVITY     14.3949  14.4575  14.5203  14.5832  14.6464  14.7096  14.7731  14.8366
 PRANDTL NUMBER    0.6957   0.6956   0.6956   0.6956   0.6955   0.6955   0.6955   0.6955

 MOLE FRACTIONS

 *H               0.12282  0.12568  0.12858  0.13153  0.13452  0.13755  0.14063  0.14375
 *H2              0.87718  0.87432  0.87142  0.86847  0.86548  0.86245  0.85937  0.85625

  * THERMODYNAMIC PROPERTIES FITTED TO 20000.K

 NOTE. WEIGHT FRACTION OF FUEL IN TOTAL FUELS AND OF OXIDANT IN TOTAL OXIDANTS









               THERMODYNAMIC EQUILIBRIUM PROPERTIES AT ASSIGNED

                           TEMPERATURE AND PRESSURE

 CASE =                

             REACTANT                    WT FRACTION      ENERGY      TEMP
                                          (SEE NOTE)     KJ/KG-MOL      K  
             H2                           1.0000000         0.000      0.000

 O/F=    0.00000  %FUEL=100.000000  R,EQ.RATIO= 0.000000  PHI,EQ.RATIO= 0.000000

 THERMODYNAMIC PROPERTIES

 P, BAR            10.000   10.000   11.000   11.000   11.000   11.000   11.000   11.000
 T, K             3430.00  3440.00  3300.00  3310.00  3320.00  3330.00  3340.00  3350.00
 RHO, KG/CU M    6.5493-2 6.5190-2 7.6599-2 7.6266-2 7.5933-2 7.5600-2 7.5268-2 7.4936-2
 H, KJ/KG         70168.5  70787.4  62171.8  62682.6  63199.7  63723.3  64253.4  64790.0
 U, KJ/KG         54899.8  55447.5  47811.4  48259.4  48713.3  49173.1  49638.9  50110.8
 G, KJ/KG       -271415.1-272411.8-257243.9-258212.5-259182.8-260154.6-261128.0-262103.0
 S, KJ/(KG)(K)    99.5871  99.7672  96.7926  96.9472  97.1032  97.2606  97.4196  97.5800

 M, (1/n)           1.868    1.865    1.911    1.908    1.906    1.903    1.900    1.897
 (dLV/dLP)t      -1.03650 -1.03729 -1.02602 -1.02664 -1.02728 -1.02793 -1.02858 -1.02925
 (dLV/dLT)p        1.5904   1.6014   1.4370   1.4462   1.4555   1.4650   1.4745   1.4842
 Cp, KJ/(KG)(K)   61.5035  62.2618  50.7600  51.3932  52.0337  52.6814  53.3364  53.9986
 GAMMAs            1.1718   1.1715   1.1779   1.1774   1.1770   1.1766   1.1762   1.1758
 SON VEL,M/SEC     4229.8   4239.2   4112.7   4120.9   4129.2   4137.6   4146.0   4154.5

 TRANSPORT PROPERTIES (GASES ONLY)
   CONDUCTIVITY IN UNITS OF MILLIWATTS/(CM)(K)

 VISC,MILLIPOISE  0.54577  0.54775  0.51957  0.52143  0.52330  0.52518  0.52707  0.52896

  WITH EQUILIBRIUM REACTIONS

 Cp, KJ/(KG)(K)   61.5035  62.2618  50.7600  51.3932  52.0337  52.6814  53.3364  53.9986
 CONDUCTIVITY     71.6403  72.7444  56.2234  57.1587  58.1047  59.0613  60.0284  61.0059
 PRANDTL NUMBER    0.4685   0.4688   0.4691   0.4688   0.4686   0.4684   0.4683   0.4682

  WITH FROZEN REACTIONS

 Cp, KJ/(KG)(K)   18.9883  19.0008  18.8206  18.8330  18.8454  18.8578  18.8702  18.8826
 CONDUCTIVITY     14.9003  14.9641  14.0475  14.1085  14.1698  14.2312  14.2929  14.3548
 PRANDTL NUMBER    0.6955   0.6955   0.6961   0.6960   0.6960   0.6959   0.6959   0.6958

 MOLE FRACTIONS

 *H               0.14692  0.15013  0.10439  0.10692  0.10949  0.11211  0.11477  0.11746
 *H2              0.85308  0.84987  0.89561  0.89308  0.89051  0.88789  0.88523  0.88254

  * THERMODYNAMIC PROPERTIES FITTED TO 20000.K

 NOTE. WEIGHT FRACTION OF FUEL IN TOTAL FUELS AND OF OXIDANT IN TOTAL OXIDANTS









               THERMODYNAMIC EQUILIBRIUM PROPERTIES AT ASSIGNED

                           TEMPERATURE AND PRESSURE

 CASE =                

             REACTANT                    WT FRACTION      ENERGY      TEMP
                                          (SEE NOTE)     KJ/KG-MOL      K  
             H2                           1.0000000         0.000      0.000

 O/F=    0.00000  %FUEL=100.000000  R,EQ.RATIO= 0.000000  PHI,EQ.RATIO= 0.000000

 THERMODYNAMIC PROPERTIES

 P, BAR            11.000   11.000   11.000   11.000   11.000   11.000   11.000   11.000
 T, K             3360.00  3370.00  3380.00  3390.00  3400.00  3410.00  3420.00  3430.00
 RHO, KG/CU M    7.4604-2 7.4272-2 7.3941-2 7.3610-2 7.3279-2 7.2949-2 7.2618-2 7.2288-2
 H, KJ/KG         65333.4  65883.4  66440.3  67004.0  67574.7  68152.4  68737.2  69329.1
 U, KJ/KG         50588.8  51073.1  51563.6  52060.4  52563.6  53073.3  53589.5  54112.3
 G, KJ/KG       -263079.6-264057.9-265037.7-266019.3-267002.5-267987.4-268974.0-269962.3
 S, KJ/(KG)(K)    97.7420  97.9054  98.0704  98.2370  98.4051  98.5747  98.7459  98.9188

 M, (1/n)           1.895    1.892    1.889    1.886    1.883    1.880    1.877    1.874
 (dLV/dLP)t      -1.02993 -1.03062 -1.03131 -1.03202 -1.03274 -1.03346 -1.03420 -1.03495
 (dLV/dLT)p        1.4939   1.5038   1.5138   1.5239   1.5341   1.5444   1.5548   1.5653
 Cp, KJ/(KG)(K)   54.6681  55.3447  56.0284  56.7193  57.4173  58.1223  58.8342  59.5532
 GAMMAs            1.1754   1.1750   1.1747   1.1744   1.1740   1.1737   1.1734   1.1731
 SON VEL,M/SEC     4163.0   4171.7   4180.4   4189.2   4198.0   4207.0   4216.0   4225.1

 TRANSPORT PROPERTIES (GASES ONLY)
   CONDUCTIVITY IN UNITS OF MILLIWATTS/(CM)(K)

 VISC,MILLIPOISE  0.53086  0.53278  0.53470  0.53662  0.53856  0.54050  0.54245  0.54441

  WITH EQUILIBRIUM REACTIONS

 Cp, KJ/(KG)(K)   54.6681  55.3447  56.0284  56.7193  57.4173  58.1223  58.8342  59.5532
 CONDUCTIVITY     61.9937  62.9917  63.9997  65.0178  66.0457  67.0833  68.1304  69.1870
 PRANDTL NUMBER    0.4681   0.4681   0.4681   0.4681   0.4682   0.4683   0.4684   0.4686

  WITH FROZEN REACTIONS

 Cp, KJ/(KG)(K)   18.8950  18.9074  18.9198  18.9322  18.9446  18.9570  18.9694  18.9818
 CONDUCTIVITY     14.4169  14.4791  14.5416  14.6043  14.6671  14.7301  14.7932  14.8565
 PRANDTL NUMBER    0.6958   0.6957   0.6957   0.6957   0.6956   0.6956   0.6956   0.6956

 MOLE FRACTIONS

 *H               0.12021  0.12299  0.12582  0.12869  0.13160  0.13456  0.13756  0.14060
 *H2              0.87979  0.87701  0.87418  0.87131  0.86840  0.86544  0.86244  0.85940

  * THERMODYNAMIC PROPERTIES FITTED TO 20000.K

 NOTE. WEIGHT FRACTION OF FUEL IN TOTAL FUELS AND OF OXIDANT IN TOTAL OXIDANTS









               THERMODYNAMIC EQUILIBRIUM PROPERTIES AT ASSIGNED

                           TEMPERATURE AND PRESSURE

 CASE =                

             REACTANT                    WT FRACTION      ENERGY      TEMP
                                          (SEE NOTE)     KJ/KG-MOL      K  
             H2                           1.0000000         0.000      0.000

 O/F=    0.00000  %FUEL=100.000000  R,EQ.RATIO= 0.000000  PHI,EQ.RATIO= 0.000000

 THERMODYNAMIC PROPERTIES

 P, BAR            11.000
 T, K             3440.00
 RHO, KG/CU M    7.1959-2
 H, KJ/KG         69928.3
 U, KJ/KG         54641.7
 G, KJ/KG       -270952.4
 S, KJ/(KG)(K)    99.0932

 M, (1/n)           1.871
 (dLV/dLP)t      -1.03571
 (dLV/dLT)p        1.5760
 Cp, KJ/(KG)(K)   60.2790
 GAMMAs            1.1729
 SON VEL,M/SEC     4234.3

 TRANSPORT PROPERTIES (GASES ONLY)
   CONDUCTIVITY IN UNITS OF MILLIWATTS/(CM)(K)

 VISC,MILLIPOISE  0.54637

  WITH EQUILIBRIUM REACTIONS

 Cp, KJ/(KG)(K)   60.2790
 CONDUCTIVITY     70.2529
 PRANDTL NUMBER    0.4688

  WITH FROZEN REACTIONS

 Cp, KJ/(KG)(K)   18.9942
 CONDUCTIVITY     14.9199
 PRANDTL NUMBER    0.6956

 MOLE FRACTIONS

 *H               0.14369
 *H2              0.85631

  * THERMODYNAMIC PROPERTIES FITTED TO 20000.K

 NOTE. WEIGHT FRACTION OF FUEL IN TOTAL FUELS AND OF OXIDANT IN TOTAL OXIDANTS



  
