
 *******************************************************************************

         NASA-GLENN CHEMICAL EQUILIBRIUM PROGRAM CEA2, MAY 21, 2004
                   BY  BONNIE MCBRIDE AND SANFORD GORDON
      REFS: NASA RP-1311, PART I, 1994 AND NASA RP-1311, PART II, 1996

 *******************************************************************************



  prob tp ions
  p,bar= 280.0,310.0,350.0,390.0,440.0,490.0,540.0,600.0,670.0,740.0,825.0,910.0
  t,k= 4500,4510,4520,4530,4540,4550,4560,4570,4580,4590,4600,4610,4620,4630,4640
  
  reac
  na H2                wt%=100.0000
  
  output short
  output siunits
  output transport
  
 end





               THERMODYNAMIC EQUILIBRIUM PROPERTIES AT ASSIGNED

                           TEMPERATURE AND PRESSURE

 CASE =                

             REACTANT                    WT FRACTION      ENERGY      TEMP
                                          (SEE NOTE)     KJ/KG-MOL      K  
             H2                           1.0000000         0.000      0.000

 O/F=    0.00000  %FUEL=100.000000  R,EQ.RATIO= 0.000000  PHI,EQ.RATIO= 0.000000

 THERMODYNAMIC PROPERTIES

 P, BAR            280.00   280.00   280.00   280.00   280.00   280.00   280.00   280.00
 T, K             4500.00  4510.00  4520.00  4530.00  4540.00  4550.00  4560.00  4570.00
 RHO, KG/CU M    1.3678 0 1.3631 0 1.3583 0 1.3535 0 1.3488 0 1.3441 0 1.3393 0 1.3346 0
 H, KJ/KG         96421.4  96944.8  97471.4  98001.0  98533.7  99069.3  99607.9 100149.6
 U, KJ/KG         75951.0  76402.7  76857.3  77314.5  77774.4  78236.9  78702.0  79169.8
 G, KJ/KG       -314263.0-315175.1-316089.4-317004.9-317921.7-318839.6-319758.6-320678.9
 S, KJ/(KG)(K)    91.2632  91.3791  91.4958  91.6128  91.7302  91.8481  91.9663  92.0850

 M, (1/n)           1.828    1.825    1.823    1.821    1.818    1.816    1.814    1.811
 (dLV/dLP)t      -1.04616 -1.04672 -1.04728 -1.04785 -1.04841 -1.04898 -1.04956 -1.05013
 (dLV/dLT)p        1.5725   1.5782   1.5839   1.5896   1.5953   1.6010   1.6067   1.6124
 Cp, KJ/(KG)(K)   52.2142  52.5129  52.8123  53.1121  53.4124  53.7132  54.0144  54.3161
 GAMMAs            1.2038   1.2038   1.2039   1.2039   1.2040   1.2041   1.2042   1.2042
 SON VEL,M/SEC     4964.0   4972.8   4981.7   4990.5   4999.5   5008.4   5017.4   5026.4

 TRANSPORT PROPERTIES (GASES ONLY)
   CONDUCTIVITY IN UNITS OF MILLIWATTS/(CM)(K)

 VISC,MILLIPOISE  0.69391  0.69576  0.69762  0.69948  0.70134  0.70320  0.70506  0.70692

  WITH EQUILIBRIUM REACTIONS

 Cp, KJ/(KG)(K)   52.2142  52.5129  52.8123  53.1121  53.4124  53.7132  54.0144  54.3161
 CONDUCTIVITY     73.1082  73.6811  74.2554  74.8304  75.4061  75.9825  76.5594  77.1368
 PRANDTL NUMBER    0.4956   0.4959   0.4962   0.4965   0.4968   0.4971   0.4974   0.4978

  WITH FROZEN REACTIONS

 Cp, KJ/(KG)(K)   19.9116  19.9203  19.9290  19.9377  19.9464  19.9550  19.9636  19.9722
 CONDUCTIVITY     19.7008  19.7585  19.8167  19.8749  19.9330  19.9910  20.0490  20.1069
 PRANDTL NUMBER    0.7013   0.7015   0.7016   0.7017   0.7018   0.7019   0.7021   0.7022

 MOLE FRACTIONS

 *H               0.18662  0.18893  0.19126  0.19361  0.19596  0.19834  0.20072  0.20312
 *H2              0.81338  0.81107  0.80874  0.80639  0.80404  0.80166  0.79928  0.79688

  * THERMODYNAMIC PROPERTIES FITTED TO 20000.K

 NOTE. WEIGHT FRACTION OF FUEL IN TOTAL FUELS AND OF OXIDANT IN TOTAL OXIDANTS









               THERMODYNAMIC EQUILIBRIUM PROPERTIES AT ASSIGNED

                           TEMPERATURE AND PRESSURE

 CASE =                

             REACTANT                    WT FRACTION      ENERGY      TEMP
                                          (SEE NOTE)     KJ/KG-MOL      K  
             H2                           1.0000000         0.000      0.000

 O/F=    0.00000  %FUEL=100.000000  R,EQ.RATIO= 0.000000  PHI,EQ.RATIO= 0.000000

 THERMODYNAMIC PROPERTIES

 P, BAR            280.00   280.00   280.00   280.00   280.00   280.00   280.00   310.00
 T, K             4580.00  4590.00  4600.00  4610.00  4620.00  4630.00  4640.00  4500.00
 RHO, KG/CU M    1.3299 0 1.3252 0 1.3205 0 1.3159 0 1.3112 0 1.3066 0 1.3019 0 1.5214 0
 H, KJ/KG        100694.2 101241.9 101792.7 102346.4 102903.2 103463.0 104025.9  95257.2
 U, KJ/KG         79640.3  80113.4  80589.2  81067.7  81548.8  82032.5  82519.0  74880.7
 G, KJ/KG       -321600.3-322523.0-323446.8-324371.8-325298.1-326225.5-327154.2-312183.2
 S, KJ/(KG)(K)    92.2041  92.3235  92.4434  92.5636  92.6843  92.8053  92.9267  90.5423

 M, (1/n)           1.809    1.806    1.804    1.801    1.799    1.796    1.794    1.836
 (dLV/dLP)t      -1.05071 -1.05129 -1.05188 -1.05246 -1.05305 -1.05364 -1.05423 -1.04414
 (dLV/dLT)p        1.6181   1.6239   1.6296   1.6354   1.6411   1.6469   1.6527   1.5475
 Cp, KJ/(KG)(K)   54.6181  54.9206  55.2234  55.5264  55.8298  56.1335  56.4373  50.6547
 GAMMAs            1.2043   1.2044   1.2045   1.2046   1.2047   1.2048   1.2049   1.2047
 SON VEL,M/SEC     5035.5   5044.6   5053.7   5062.9   5072.1   5081.3   5090.6   4954.6

 TRANSPORT PROPERTIES (GASES ONLY)
   CONDUCTIVITY IN UNITS OF MILLIWATTS/(CM)(K)

 VISC,MILLIPOISE  0.70878  0.71064  0.71250  0.71436  0.71622  0.71808  0.71994  0.69187

  WITH EQUILIBRIUM REACTIONS

 Cp, KJ/(KG)(K)   54.6181  54.9206  55.2234  55.5264  55.8298  56.1335  56.4373  50.6547
 CONDUCTIVITY     77.7146  78.2929  78.8714  79.4501  80.0290  80.6079  81.1869  70.7119
 PRANDTL NUMBER    0.4981   0.4985   0.4989   0.4993   0.4996   0.5001   0.5005   0.4956

  WITH FROZEN REACTIONS

 Cp, KJ/(KG)(K)   19.9807  19.9892  19.9977  20.0062  20.0146  20.0230  20.0314  19.9076
 CONDUCTIVITY     20.1647  20.2225  20.2801  20.3377  20.3951  20.4525  20.5097  19.6422
 PRANDTL NUMBER    0.7023   0.7024   0.7026   0.7027   0.7029   0.7030   0.7031   0.7012

 MOLE FRACTIONS

 *H               0.20554  0.20797  0.21041  0.21287  0.21534  0.21782  0.22032  0.17827
 *H2              0.79446  0.79203  0.78959  0.78713  0.78466  0.78218  0.77968  0.82173

  * THERMODYNAMIC PROPERTIES FITTED TO 20000.K

 NOTE. WEIGHT FRACTION OF FUEL IN TOTAL FUELS AND OF OXIDANT IN TOTAL OXIDANTS









               THERMODYNAMIC EQUILIBRIUM PROPERTIES AT ASSIGNED

                           TEMPERATURE AND PRESSURE

 CASE =                

             REACTANT                    WT FRACTION      ENERGY      TEMP
                                          (SEE NOTE)     KJ/KG-MOL      K  
             H2                           1.0000000         0.000      0.000

 O/F=    0.00000  %FUEL=100.000000  R,EQ.RATIO= 0.000000  PHI,EQ.RATIO= 0.000000

 THERMODYNAMIC PROPERTIES

 P, BAR            310.00   310.00   310.00   310.00   310.00   310.00   310.00   310.00
 T, K             4510.00  4520.00  4530.00  4540.00  4550.00  4560.00  4570.00  4580.00
 RHO, KG/CU M    1.5161 0 1.5109 0 1.5057 0 1.5005 0 1.4953 0 1.4902 0 1.4850 0 1.4799 0
 H, KJ/KG         95765.2  96276.0  96789.7  97306.3  97825.8  98348.1  98873.4  99401.5
 U, KJ/KG         75318.4  75758.7  76201.5  76646.9  77094.7  77545.2  77998.1  78453.6
 G, KJ/KG       -313089.1-313996.2-314904.5-315813.8-316724.4-317636.0-318548.9-319462.8
 S, KJ/(KG)(K)    90.6551  90.7682  90.8817  90.9956  91.1099  91.2246  91.3397  91.4551

 M, (1/n)           1.834    1.832    1.829    1.827    1.825    1.823    1.820    1.818
 (dLV/dLP)t      -1.04468 -1.04522 -1.04576 -1.04631 -1.04686 -1.04742 -1.04797 -1.04853
 (dLV/dLT)p        1.5529   1.5584   1.5639   1.5694   1.5749   1.5805   1.5860   1.5916
 Cp, KJ/(KG)(K)   50.9408  51.2274  51.5146  51.8024  52.0906  52.3794  52.6686  52.9582
 GAMMAs            1.2047   1.2048   1.2048   1.2049   1.2050   1.2050   1.2051   1.2052
 SON VEL,M/SEC     4963.2   4971.8   4980.5   4989.3   4998.0   5006.8   5015.6   5024.5

 TRANSPORT PROPERTIES (GASES ONLY)
   CONDUCTIVITY IN UNITS OF MILLIWATTS/(CM)(K)

 VISC,MILLIPOISE  0.69371  0.69556  0.69741  0.69926  0.70112  0.70297  0.70482  0.70667

  WITH EQUILIBRIUM REACTIONS

 Cp, KJ/(KG)(K)   50.9408  51.2274  51.5146  51.8024  52.0906  52.3794  52.6686  52.9582
 CONDUCTIVITY     71.2679  71.8248  72.3826  72.9413  73.5007  74.0609  74.6217  75.1832
 PRANDTL NUMBER    0.4959   0.4961   0.4963   0.4966   0.4969   0.4972   0.4975   0.4978

  WITH FROZEN REACTIONS

 Cp, KJ/(KG)(K)   19.9163  19.9250  19.9337  19.9423  19.9509  19.9595  19.9681  19.9766
 CONDUCTIVITY     19.7005  19.7587  19.8168  19.8750  19.9331  19.9911  20.0491  20.1070
 PRANDTL NUMBER    0.7013   0.7014   0.7015   0.7016   0.7017   0.7019   0.7020   0.7021

 MOLE FRACTIONS

 *H               0.18049  0.18273  0.18498  0.18725  0.18953  0.19182  0.19413  0.19645
 *H2              0.81951  0.81727  0.81502  0.81275  0.81047  0.80818  0.80587  0.80355

  * THERMODYNAMIC PROPERTIES FITTED TO 20000.K

 NOTE. WEIGHT FRACTION OF FUEL IN TOTAL FUELS AND OF OXIDANT IN TOTAL OXIDANTS









               THERMODYNAMIC EQUILIBRIUM PROPERTIES AT ASSIGNED

                           TEMPERATURE AND PRESSURE

 CASE =                

             REACTANT                    WT FRACTION      ENERGY      TEMP
                                          (SEE NOTE)     KJ/KG-MOL      K  
             H2                           1.0000000         0.000      0.000

 O/F=    0.00000  %FUEL=100.000000  R,EQ.RATIO= 0.000000  PHI,EQ.RATIO= 0.000000

 THERMODYNAMIC PROPERTIES

 P, BAR            310.00   310.00   310.00   310.00   310.00   310.00   350.00   350.00
 T, K             4590.00  4600.00  4610.00  4620.00  4630.00  4640.00  4500.00  4510.00
 RHO, KG/CU M    1.4747 0 1.4696 0 1.4645 0 1.4594 0 1.4543 0 1.4492 0 1.7266 0 1.7208 0
 H, KJ/KG         99932.5 100466.5 101003.3 101543.1 102085.7 102631.3  93942.5  94432.8
 U, KJ/KG         78911.7  79372.3  79835.5  80301.2  80769.5  81240.3  73672.0  74093.7
 G, KJ/KG       -320378.0-321294.3-322211.7-323130.3-324050.1-324971.1-309716.8-310614.3
 S, KJ/(KG)(K)    91.5709  91.6871  91.8037  91.9207  92.0380  92.1557  89.7021  89.8109

 M, (1/n)           1.816    1.813    1.811    1.808    1.806    1.804    1.846    1.844
 (dLV/dLP)t      -1.04909 -1.04966 -1.05022 -1.05079 -1.05136 -1.05194 -1.04183 -1.04234
 (dLV/dLT)p        1.5971   1.6027   1.6083   1.6139   1.6194   1.6250   1.5188   1.5240
 Cp, KJ/(KG)(K)   53.2483  53.5387  53.8296  54.1207  54.4122  54.7040  48.8874  49.1590
 GAMMAs            1.2052   1.2053   1.2054   1.2055   1.2056   1.2057   1.2059   1.2059
 SON VEL,M/SEC     5033.4   5042.4   5051.3   5060.4   5069.4   5078.5   4944.0   4952.4

 TRANSPORT PROPERTIES (GASES ONLY)
   CONDUCTIVITY IN UNITS OF MILLIWATTS/(CM)(K)

 VISC,MILLIPOISE  0.70853  0.71038  0.71224  0.71409  0.71595  0.71780  0.68947  0.69130

  WITH EQUILIBRIUM REACTIONS

 Cp, KJ/(KG)(K)   53.2483  53.5387  53.8296  54.1207  54.4122  54.7040  48.8874  49.1590
 CONDUCTIVITY     75.7452  76.3076  76.8705  77.4338  77.9974  78.5611  67.9667  68.5018
 PRANDTL NUMBER    0.4981   0.4984   0.4988   0.4991   0.4995   0.4998   0.4959   0.4961

  WITH FROZEN REACTIONS

 Cp, KJ/(KG)(K)   19.9852  19.9936  20.0021  20.0105  20.0189  20.0273  19.9030  19.9118
 CONDUCTIVITY     20.1649  20.2227  20.2804  20.3380  20.3955  20.4530  19.5731  19.6312
 PRANDTL NUMBER    0.7022   0.7023   0.7025   0.7026   0.7027   0.7029   0.7011   0.7012

 MOLE FRACTIONS

 *H               0.19879  0.20114  0.20350  0.20588  0.20827  0.21068  0.16874  0.17086
 *H2              0.80121  0.79886  0.79650  0.79412  0.79173  0.78932  0.83126  0.82914

  * THERMODYNAMIC PROPERTIES FITTED TO 20000.K

 NOTE. WEIGHT FRACTION OF FUEL IN TOTAL FUELS AND OF OXIDANT IN TOTAL OXIDANTS









               THERMODYNAMIC EQUILIBRIUM PROPERTIES AT ASSIGNED

                           TEMPERATURE AND PRESSURE

 CASE =                

             REACTANT                    WT FRACTION      ENERGY      TEMP
                                          (SEE NOTE)     KJ/KG-MOL      K  
             H2                           1.0000000         0.000      0.000

 O/F=    0.00000  %FUEL=100.000000  R,EQ.RATIO= 0.000000  PHI,EQ.RATIO= 0.000000

 THERMODYNAMIC PROPERTIES

 P, BAR            350.00   350.00   350.00   350.00   350.00   350.00   350.00   350.00
 T, K             4520.00  4530.00  4540.00  4550.00  4560.00  4570.00  4580.00  4590.00
 RHO, KG/CU M    1.7150 0 1.7092 0 1.7034 0 1.6977 0 1.6919 0 1.6862 0 1.6804 0 1.6747 0
 H, KJ/KG         94925.7  95421.4  95919.8  96420.9  96924.8  97431.4  97940.8  98452.9
 U, KJ/KG         74517.8  74944.2  75373.1  75804.4  76238.1  76674.2  77112.8  77553.7
 G, KJ/KG       -311512.9-312412.7-313313.5-314215.5-315118.5-316022.7-316927.9-317834.3
 S, KJ/(KG)(K)    89.9201  90.0296  90.1395  90.2498  90.3604  90.4714  90.5827  90.6944

 M, (1/n)           1.842    1.839    1.837    1.835    1.833    1.831    1.828    1.826
 (dLV/dLP)t      -1.04286 -1.04338 -1.04391 -1.04443 -1.04496 -1.04549 -1.04603 -1.04657
 (dLV/dLT)p        1.5293   1.5345   1.5398   1.5451   1.5504   1.5558   1.5611   1.5664
 Cp, KJ/(KG)(K)   49.4311  49.7037  49.9769  50.2507  50.5250  50.7998  51.0750  51.3508
 GAMMAs            1.2059   1.2060   1.2060   1.2060   1.2061   1.2061   1.2062   1.2063
 SON VEL,M/SEC     4960.9   4969.4   4977.9   4986.4   4995.0   5003.6   5012.3   5021.0

 TRANSPORT PROPERTIES (GASES ONLY)
   CONDUCTIVITY IN UNITS OF MILLIWATTS/(CM)(K)

 VISC,MILLIPOISE  0.69314  0.69497  0.69681  0.69865  0.70049  0.70234  0.70418  0.70602

  WITH EQUILIBRIUM REACTIONS

 Cp, KJ/(KG)(K)   49.4311  49.7037  49.9769  50.2507  50.5250  50.7998  51.0750  51.3508
 CONDUCTIVITY     69.0381  69.5753  70.1136  70.6527  71.1928  71.7338  72.2755  72.8179
 PRANDTL NUMBER    0.4963   0.4965   0.4967   0.4969   0.4971   0.4974   0.4976   0.4979

  WITH FROZEN REACTIONS

 Cp, KJ/(KG)(K)   19.9204  19.9291  19.9378  19.9464  19.9550  19.9635  19.9720  19.9806
 CONDUCTIVITY     19.6893  19.7474  19.8055  19.8636  19.9216  19.9796  20.0375  20.0954
 PRANDTL NUMBER    0.7013   0.7014   0.7015   0.7016   0.7017   0.7018   0.7019   0.7020

 MOLE FRACTIONS

 *H               0.17299  0.17514  0.17730  0.17947  0.18166  0.18386  0.18608  0.18831
 *H2              0.82701  0.82486  0.82270  0.82053  0.81834  0.81614  0.81392  0.81169

  * THERMODYNAMIC PROPERTIES FITTED TO 20000.K

 NOTE. WEIGHT FRACTION OF FUEL IN TOTAL FUELS AND OF OXIDANT IN TOTAL OXIDANTS









               THERMODYNAMIC EQUILIBRIUM PROPERTIES AT ASSIGNED

                           TEMPERATURE AND PRESSURE

 CASE =                

             REACTANT                    WT FRACTION      ENERGY      TEMP
                                          (SEE NOTE)     KJ/KG-MOL      K  
             H2                           1.0000000         0.000      0.000

 O/F=    0.00000  %FUEL=100.000000  R,EQ.RATIO= 0.000000  PHI,EQ.RATIO= 0.000000

 THERMODYNAMIC PROPERTIES

 P, BAR            350.00   350.00   350.00   350.00   350.00   390.00   390.00   390.00
 T, K             4600.00  4610.00  4620.00  4630.00  4640.00  4500.00  4510.00  4520.00
 RHO, KG/CU M    1.6690 0 1.6633 0 1.6576 0 1.6519 0 1.6463 0 1.9325 0 1.9261 0 1.9197 0
 H, KJ/KG         98967.8  99485.5 100005.9 100529.1 101055.1  92834.1  93309.3  93787.1
 U, KJ/KG         77997.1  78443.0  78891.2  79341.9  79795.1  72652.9  73061.0  73471.4
 G, KJ/KG       -318741.8-319650.4-320560.2-321471.1-322383.1-307528.1-308418.2-309309.5
 S, KJ/(KG)(K)    90.8064  90.9189  91.0316  91.1447  91.2582  88.9694  89.0748  89.1807

 M, (1/n)           1.824    1.822    1.819    1.817    1.815    1.854    1.852    1.850
 (dLV/dLP)t      -1.04711 -1.04765 -1.04820 -1.04875 -1.04930 -1.03985 -1.04035 -1.04084
 (dLV/dLT)p        1.5718   1.5771   1.5825   1.5879   1.5933   1.4943   1.4993   1.5044
 Cp, KJ/(KG)(K)   51.6269  51.9035  52.1804  52.4578  52.7354  47.3929  47.6520  47.9115
 GAMMAs            1.2063   1.2064   1.2065   1.2066   1.2066   1.2069   1.2069   1.2069
 SON VEL,M/SEC     5029.7   5038.4   5047.2   5056.1   5064.9   4935.3   4943.5   4951.8

 TRANSPORT PROPERTIES (GASES ONLY)
   CONDUCTIVITY IN UNITS OF MILLIWATTS/(CM)(K)

 VISC,MILLIPOISE  0.70787  0.70972  0.71156  0.71341  0.71526  0.68736  0.68918  0.69100

  WITH EQUILIBRIUM REACTIONS

 Cp, KJ/(KG)(K)   51.6269  51.9035  52.1804  52.4578  52.7354  47.3929  47.6520  47.9115
 CONDUCTIVITY     73.3610  73.9047  74.4490  74.9938  75.5390  65.6197  66.1363  66.6542
 PRANDTL NUMBER    0.4982   0.4984   0.4987   0.4990   0.4993   0.4964   0.4966   0.4967

  WITH FROZEN REACTIONS

 Cp, KJ/(KG)(K)   19.9890  19.9975  20.0059  20.0143  20.0227  19.8992  19.9079  19.9166
 CONDUCTIVITY     20.1533  20.2111  20.2688  20.3265  20.3841  19.5117  19.5696  19.6276
 PRANDTL NUMBER    0.7021   0.7022   0.7023   0.7025   0.7026   0.7010   0.7011   0.7012

 MOLE FRACTIONS

 *H               0.19055  0.19280  0.19507  0.19736  0.19965  0.16063  0.16266  0.16470
 *H2              0.80945  0.80720  0.80493  0.80264  0.80035  0.83937  0.83734  0.83530

  * THERMODYNAMIC PROPERTIES FITTED TO 20000.K

 NOTE. WEIGHT FRACTION OF FUEL IN TOTAL FUELS AND OF OXIDANT IN TOTAL OXIDANTS









               THERMODYNAMIC EQUILIBRIUM PROPERTIES AT ASSIGNED

                           TEMPERATURE AND PRESSURE

 CASE =                

             REACTANT                    WT FRACTION      ENERGY      TEMP
                                          (SEE NOTE)     KJ/KG-MOL      K  
             H2                           1.0000000         0.000      0.000

 O/F=    0.00000  %FUEL=100.000000  R,EQ.RATIO= 0.000000  PHI,EQ.RATIO= 0.000000

 THERMODYNAMIC PROPERTIES

 P, BAR            390.00   390.00   390.00   390.00   390.00   390.00   390.00   390.00
 T, K             4530.00  4540.00  4550.00  4560.00  4570.00  4580.00  4590.00  4600.00
 RHO, KG/CU M    1.9133 0 1.9069 0 1.9006 0 1.8942 0 1.8879 0 1.8816 0 1.8753 0 1.8690 0
 H, KJ/KG         94267.5  94750.6  95236.2  95724.4  96215.3  96708.8  97204.9  97703.7
 U, KJ/KG         73884.0  74298.9  74716.2  75135.8  75557.6  75981.8  76408.3  76837.1
 G, KJ/KG       -310201.9-311095.3-311989.7-312885.3-313781.9-314679.6-315578.3-316478.2
 S, KJ/(KG)(K)    89.2868  89.3934  89.5002  89.6074  89.7149  89.8228  89.9310  90.0395

 M, (1/n)           1.848    1.846    1.844    1.842    1.839    1.837    1.835    1.833
 (dLV/dLP)t      -1.04134 -1.04185 -1.04235 -1.04286 -1.04337 -1.04389 -1.04441 -1.04493
 (dLV/dLT)p        1.5094   1.5145   1.5196   1.5247   1.5299   1.5350   1.5401   1.5453
 Cp, KJ/(KG)(K)   48.1717  48.4324  48.6937  48.9555  49.2179  49.4808  49.7441  50.0079
 GAMMAs            1.2070   1.2070   1.2070   1.2071   1.2071   1.2072   1.2072   1.2073
 SON VEL,M/SEC     4960.1   4968.4   4976.8   4985.2   4993.6   5002.1   5010.6   5019.1

 TRANSPORT PROPERTIES (GASES ONLY)
   CONDUCTIVITY IN UNITS OF MILLIWATTS/(CM)(K)

 VISC,MILLIPOISE  0.69283  0.69466  0.69648  0.69831  0.70015  0.70198  0.70381  0.70565

  WITH EQUILIBRIUM REACTIONS

 Cp, KJ/(KG)(K)   48.1717  48.4324  48.6937  48.9555  49.2179  49.4808  49.7441  50.0079
 CONDUCTIVITY     67.1732  67.6933  68.2144  68.7366  69.2597  69.7838  70.3087  70.8344
 PRANDTL NUMBER    0.4968   0.4970   0.4972   0.4974   0.4975   0.4977   0.4980   0.4982

  WITH FROZEN REACTIONS

 Cp, KJ/(KG)(K)   19.9253  19.9339  19.9425  19.9511  19.9596  19.9682  19.9767  19.9851
 CONDUCTIVITY     19.6856  19.7435  19.8015  19.8594  19.9174  19.9753  20.0331  20.0910
 PRANDTL NUMBER    0.7013   0.7014   0.7014   0.7015   0.7016   0.7017   0.7018   0.7019

 MOLE FRACTIONS

 *H               0.16675  0.16882  0.17090  0.17300  0.17511  0.17723  0.17937  0.18152
 *H2              0.83325  0.83118  0.82910  0.82700  0.82489  0.82277  0.82063  0.81848

  * THERMODYNAMIC PROPERTIES FITTED TO 20000.K

 NOTE. WEIGHT FRACTION OF FUEL IN TOTAL FUELS AND OF OXIDANT IN TOTAL OXIDANTS









               THERMODYNAMIC EQUILIBRIUM PROPERTIES AT ASSIGNED

                           TEMPERATURE AND PRESSURE

 CASE =                

             REACTANT                    WT FRACTION      ENERGY      TEMP
                                          (SEE NOTE)     KJ/KG-MOL      K  
             H2                           1.0000000         0.000      0.000

 O/F=    0.00000  %FUEL=100.000000  R,EQ.RATIO= 0.000000  PHI,EQ.RATIO= 0.000000

 THERMODYNAMIC PROPERTIES

 P, BAR            390.00   390.00   390.00   390.00   440.00   440.00   440.00   440.00
 T, K             4610.00  4620.00  4630.00  4640.00  4500.00  4510.00  4520.00  4530.00
 RHO, KG/CU M    1.8627 0 1.8565 0 1.8502 0 1.8440 0 2.1905 0 2.1833 0 2.1762 0 2.1691 0
 H, KJ/KG         98205.1  98709.1  99215.8  99725.2  91665.6  92125.0  92586.8  93051.1
 U, KJ/KG         77268.3  77701.7  78137.5  78575.7  71578.7  71972.4  72368.2  72766.3
 G, KJ/KG       -317379.1-318281.2-319184.3-320088.5-305099.4-305981.6-306864.8-307749.1
 S, KJ/(KG)(K)    90.1484  90.2576  90.3672  90.4771  88.1700  88.2720  88.3742  88.4768

 M, (1/n)           1.831    1.829    1.826    1.824    1.863    1.861    1.859    1.857
 (dLV/dLP)t      -1.04545 -1.04598 -1.04650 -1.04704 -1.03774 -1.03822 -1.03869 -1.03917
 (dLV/dLT)p        1.5505   1.5556   1.5608   1.5660   1.4681   1.4730   1.4778   1.4826
 Cp, KJ/(KG)(K)   50.2721  50.5368  50.8019  51.0673  45.8134  46.0590  46.3051  46.5519
 GAMMAs            1.2073   1.2074   1.2075   1.2075   1.2081   1.2081   1.2081   1.2081
 SON VEL,M/SEC     5027.7   5036.3   5044.9   5053.6   4926.2   4934.2   4942.3   4950.4

 TRANSPORT PROPERTIES (GASES ONLY)
   CONDUCTIVITY IN UNITS OF MILLIWATTS/(CM)(K)

 VISC,MILLIPOISE  0.70749  0.70932  0.71116  0.71300  0.68506  0.68686  0.68867  0.69048

  WITH EQUILIBRIUM REACTIONS

 Cp, KJ/(KG)(K)   50.2721  50.5368  50.8019  51.0673  45.8134  46.0590  46.3051  46.5519
 CONDUCTIVITY     71.3609  71.8881  72.4160  72.9444  63.1133  63.6096  64.1072  64.6061
 PRANDTL NUMBER    0.4984   0.4986   0.4989   0.4992   0.4973   0.4974   0.4974   0.4975

  WITH FROZEN REACTIONS

 Cp, KJ/(KG)(K)   19.9936  20.0020  20.0104  20.0188  19.8952  19.9039  19.9126  19.9212
 CONDUCTIVITY     20.1488  20.2065  20.2643  20.3219  19.4437  19.5014  19.5592  19.6169
 PRANDTL NUMBER    0.7020   0.7021   0.7023   0.7024   0.7010   0.7010   0.7011   0.7012

 MOLE FRACTIONS

 *H               0.18368  0.18585  0.18804  0.19024  0.15200  0.15393  0.15588  0.15783
 *H2              0.81632  0.81415  0.81196  0.80976  0.84800  0.84607  0.84412  0.84217

  * THERMODYNAMIC PROPERTIES FITTED TO 20000.K

 NOTE. WEIGHT FRACTION OF FUEL IN TOTAL FUELS AND OF OXIDANT IN TOTAL OXIDANTS









               THERMODYNAMIC EQUILIBRIUM PROPERTIES AT ASSIGNED

                           TEMPERATURE AND PRESSURE

 CASE =                

             REACTANT                    WT FRACTION      ENERGY      TEMP
                                          (SEE NOTE)     KJ/KG-MOL      K  
             H2                           1.0000000         0.000      0.000

 O/F=    0.00000  %FUEL=100.000000  R,EQ.RATIO= 0.000000  PHI,EQ.RATIO= 0.000000

 THERMODYNAMIC PROPERTIES

 P, BAR            440.00   440.00   440.00   440.00   440.00   440.00   440.00   440.00
 T, K             4540.00  4550.00  4560.00  4570.00  4580.00  4590.00  4600.00  4610.00
 RHO, KG/CU M    2.1620 0 2.1549 0 2.1479 0 2.1408 0 2.1338 0 2.1268 0 2.1198 0 2.1128 0
 H, KJ/KG         93517.8  93987.1  94458.8  94933.0  95409.7  95888.8  96370.5  96854.7
 U, KJ/KG         73166.5  73568.9  73973.5  74380.3  74789.3  75200.4  75613.8  76029.4
 G, KJ/KG       -308634.3-309520.6-310408.0-311296.4-312185.8-313076.3-313967.8-314860.4
 S, KJ/(KG)(K)    88.5798  88.6830  88.7866  88.8904  88.9946  89.0992  89.2040  89.3091

 M, (1/n)           1.855    1.853    1.851    1.849    1.847    1.845    1.843    1.841
 (dLV/dLP)t      -1.03965 -1.04013 -1.04062 -1.04111 -1.04160 -1.04210 -1.04259 -1.04309
 (dLV/dLT)p        1.4875   1.4924   1.4973   1.5022   1.5071   1.5120   1.5170   1.5219
 Cp, KJ/(KG)(K)   46.7992  47.0471  47.2956  47.5446  47.7941  48.0441  48.2946  48.5456
 GAMMAs            1.2082   1.2082   1.2082   1.2082   1.2083   1.2083   1.2083   1.2084
 SON VEL,M/SEC     4958.6   4966.8   4975.0   4983.2   4991.5   4999.8   5008.1   5016.5

 TRANSPORT PROPERTIES (GASES ONLY)
   CONDUCTIVITY IN UNITS OF MILLIWATTS/(CM)(K)

 VISC,MILLIPOISE  0.69229  0.69411  0.69592  0.69774  0.69956  0.70138  0.70320  0.70503

  WITH EQUILIBRIUM REACTIONS

 Cp, KJ/(KG)(K)   46.7992  47.0471  47.2956  47.5446  47.7941  48.0441  48.2946  48.5456
 CONDUCTIVITY     65.1061  65.6073  66.1096  66.6130  67.1174  67.6228  68.1292  68.6364
 PRANDTL NUMBER    0.4976   0.4977   0.4979   0.4980   0.4982   0.4983   0.4985   0.4987

  WITH FROZEN REACTIONS

 Cp, KJ/(KG)(K)   19.9298  19.9384  19.9470  19.9556  19.9641  19.9726  19.9810  19.9895
 CONDUCTIVITY     19.6747  19.7325  19.7903  19.8480  19.9058  19.9636  20.0213  20.0791
 PRANDTL NUMBER    0.7013   0.7014   0.7014   0.7015   0.7016   0.7017   0.7018   0.7019

 MOLE FRACTIONS

 *H               0.15980  0.16178  0.16378  0.16579  0.16781  0.16985  0.17189  0.17395
 *H2              0.84020  0.83822  0.83622  0.83421  0.83219  0.83015  0.82811  0.82605

  * THERMODYNAMIC PROPERTIES FITTED TO 20000.K

 NOTE. WEIGHT FRACTION OF FUEL IN TOTAL FUELS AND OF OXIDANT IN TOTAL OXIDANTS









               THERMODYNAMIC EQUILIBRIUM PROPERTIES AT ASSIGNED

                           TEMPERATURE AND PRESSURE

 CASE =                

             REACTANT                    WT FRACTION      ENERGY      TEMP
                                          (SEE NOTE)     KJ/KG-MOL      K  
             H2                           1.0000000         0.000      0.000

 O/F=    0.00000  %FUEL=100.000000  R,EQ.RATIO= 0.000000  PHI,EQ.RATIO= 0.000000

 THERMODYNAMIC PROPERTIES

 P, BAR            440.00   440.00   440.00   490.00   490.00   490.00   490.00   490.00
 T, K             4620.00  4630.00  4640.00  4500.00  4510.00  4520.00  4530.00  4540.00
 RHO, KG/CU M    2.1058 0 2.0989 0 2.0920 0 2.4491 0 2.4412 0 2.4334 0 2.4256 0 2.4178 0
 H, KJ/KG         97341.5  97830.7  98322.4  90679.7  91125.7  91574.0  92024.6  92477.6
 U, KJ/KG         76447.2  76867.3  77289.5  70672.3  71053.8  71437.4  71823.1  72210.9
 G, KJ/KG       -315754.0-316648.6-317544.4-302941.7-303816.9-304693.1-305570.3-306448.5
 S, KJ/(KG)(K)    89.4146  89.5204  89.6265  87.4714  87.5704  87.6697  87.7693  87.8692

 M, (1/n)           1.838    1.836    1.834    1.870    1.868    1.866    1.864    1.863
 (dLV/dLP)t      -1.04360 -1.04410 -1.04461 -1.03595 -1.03640 -1.03685 -1.03731 -1.03777
 (dLV/dLT)p        1.5269   1.5319   1.5369   1.4458   1.4505   1.4551   1.4598   1.4644
 Cp, KJ/(KG)(K)   48.7970  49.0488  49.3010  44.4775  44.7116  44.9463  45.1816  45.4175
 GAMMAs            1.2084   1.2085   1.2085   1.2092   1.2092   1.2092   1.2092   1.2092
 SON VEL,M/SEC     5024.9   5033.3   5041.7   4918.7   4926.6   4934.5   4942.4   4950.4

 TRANSPORT PROPERTIES (GASES ONLY)
   CONDUCTIVITY IN UNITS OF MILLIWATTS/(CM)(K)

 VISC,MILLIPOISE  0.70685  0.70868  0.71051  0.68305  0.68484  0.68663  0.68843  0.69022

  WITH EQUILIBRIUM REACTIONS

 Cp, KJ/(KG)(K)   48.7970  49.0488  49.3010  44.4775  44.7116  44.9463  45.1816  45.4174
 CONDUCTIVITY     69.1445  69.6534  70.1631  60.9728  61.4513  61.9311  62.4122  62.8945
 PRANDTL NUMBER    0.4988   0.4990   0.4992   0.4983   0.4983   0.4983   0.4984   0.4984

  WITH FROZEN REACTIONS

 Cp, KJ/(KG)(K)   19.9979  20.0063  20.0147  19.8918  19.9005  19.9092  19.9178  19.9264
 CONDUCTIVITY     20.1368  20.1945  20.2521  19.3837  19.4412  19.4987  19.5562  19.6138
 PRANDTL NUMBER    0.7020   0.7021   0.7022   0.7010   0.7010   0.7011   0.7012   0.7012

 MOLE FRACTIONS

 *H               0.17603  0.17812  0.18021  0.14466  0.14651  0.14836  0.15024  0.15212
 *H2              0.82397  0.82188  0.81979  0.85534  0.85349  0.85164  0.84976  0.84788

  * THERMODYNAMIC PROPERTIES FITTED TO 20000.K

 NOTE. WEIGHT FRACTION OF FUEL IN TOTAL FUELS AND OF OXIDANT IN TOTAL OXIDANTS









               THERMODYNAMIC EQUILIBRIUM PROPERTIES AT ASSIGNED

                           TEMPERATURE AND PRESSURE

 CASE =                

             REACTANT                    WT FRACTION      ENERGY      TEMP
                                          (SEE NOTE)     KJ/KG-MOL      K  
             H2                           1.0000000         0.000      0.000

 O/F=    0.00000  %FUEL=100.000000  R,EQ.RATIO= 0.000000  PHI,EQ.RATIO= 0.000000

 THERMODYNAMIC PROPERTIES

 P, BAR            490.00   490.00   490.00   490.00   490.00   490.00   490.00   490.00
 T, K             4550.00  4560.00  4570.00  4580.00  4590.00  4600.00  4610.00  4620.00
 RHO, KG/CU M    2.4100 0 2.4022 0 2.3944 0 2.3867 0 2.3790 0 2.3713 0 2.3636 0 2.3559 0
 H, KJ/KG         92933.0  93390.7  93850.8  94313.2  94778.1  95245.4  95715.0  96187.0
 U, KJ/KG         72600.7  72992.6  73386.7  73782.8  74181.0  74581.3  74983.8  75388.3
 G, KJ/KG       -307327.7-308207.9-309089.1-309971.3-310854.5-311738.8-312624.0-313510.3
 S, KJ/(KG)(K)    87.9694  88.0699  88.1706  88.2717  88.3731  88.4748  88.5768  88.6791

 M, (1/n)           1.861    1.859    1.857    1.855    1.853    1.851    1.849    1.847
 (dLV/dLP)t      -1.03824 -1.03870 -1.03917 -1.03964 -1.04012 -1.04060 -1.04108 -1.04156
 (dLV/dLT)p        1.4691   1.4738   1.4785   1.4833   1.4880   1.4928   1.4975   1.5023
 Cp, KJ/(KG)(K)   45.6539  45.8909  46.1284  46.3664  46.6050  46.8441  47.0836  47.3236
 GAMMAs            1.2092   1.2092   1.2092   1.2093   1.2093   1.2093   1.2094   1.2094
 SON VEL,M/SEC     4958.4   4966.5   4974.5   4982.6   4990.8   4998.9   5007.1   5015.4

 TRANSPORT PROPERTIES (GASES ONLY)
   CONDUCTIVITY IN UNITS OF MILLIWATTS/(CM)(K)

 VISC,MILLIPOISE  0.69202  0.69383  0.69563  0.69744  0.69924  0.70105  0.70287  0.70468

  WITH EQUILIBRIUM REACTIONS

 Cp, KJ/(KG)(K)   45.6539  45.8909  46.1284  46.3664  46.6050  46.8441  47.0836  47.3236
 CONDUCTIVITY     63.3781  63.8629  64.3489  64.8359  65.3241  65.8132  66.3034  66.7945
 PRANDTL NUMBER    0.4985   0.4986   0.4987   0.4988   0.4989   0.4990   0.4991   0.4993

  WITH FROZEN REACTIONS

 Cp, KJ/(KG)(K)   19.9350  19.9436  19.9521  19.9606  19.9691  19.9776  19.9860  19.9944
 CONDUCTIVITY     19.6713  19.7289  19.7865  19.8441  19.9017  19.9593  20.0169  20.0745
 PRANDTL NUMBER    0.7013   0.7014   0.7015   0.7015   0.7016   0.7017   0.7018   0.7019

 MOLE FRACTIONS

 *H               0.15402  0.15593  0.15785  0.15978  0.16173  0.16369  0.16567  0.16765
 *H2              0.84598  0.84407  0.84215  0.84022  0.83827  0.83631  0.83433  0.83235

  * THERMODYNAMIC PROPERTIES FITTED TO 20000.K

 NOTE. WEIGHT FRACTION OF FUEL IN TOTAL FUELS AND OF OXIDANT IN TOTAL OXIDANTS









               THERMODYNAMIC EQUILIBRIUM PROPERTIES AT ASSIGNED

                           TEMPERATURE AND PRESSURE

 CASE =                

             REACTANT                    WT FRACTION      ENERGY      TEMP
                                          (SEE NOTE)     KJ/KG-MOL      K  
             H2                           1.0000000         0.000      0.000

 O/F=    0.00000  %FUEL=100.000000  R,EQ.RATIO= 0.000000  PHI,EQ.RATIO= 0.000000

 THERMODYNAMIC PROPERTIES

 P, BAR            490.00   490.00   540.00   540.00   540.00   540.00   540.00   540.00
 T, K             4630.00  4640.00  4500.00  4510.00  4520.00  4530.00  4540.00  4550.00
 RHO, KG/CU M    2.3483 0 2.3406 0 2.7082 0 2.6997 0 2.6911 0 2.6826 0 2.6740 0 2.6655 0
 H, KJ/KG         96661.5  97138.3  89833.4  90267.8  90704.4  91143.3  91584.5  92027.9
 U, KJ/KG         75795.0  76203.8  69894.2  70265.2  70638.3  71013.3  71390.4  71769.4
 G, KJ/KG       -314397.6-315285.9-301001.1-301870.0-302740.0-303611.0-304482.9-305355.7
 S, KJ/(KG)(K)    88.7817  88.8845  86.8521  86.9485  87.0452  87.1422  87.2395  87.3371

 M, (1/n)           1.845    1.843    1.876    1.875    1.873    1.871    1.869    1.867
 (dLV/dLP)t      -1.04205 -1.04254 -1.03439 -1.03482 -1.03526 -1.03570 -1.03614 -1.03659
 (dLV/dLT)p        1.5071   1.5119   1.4265   1.4310   1.4354   1.4399   1.4444   1.4489
 Cp, KJ/(KG)(K)   47.5640  47.8049  43.3285  43.5527  43.7774  44.0027  44.2286  44.4550
 GAMMAs            1.2094   1.2095   1.2102   1.2102   1.2102   1.2102   1.2102   1.2102
 SON VEL,M/SEC     5023.6   5031.9   4912.3   4920.1   4927.9   4935.7   4943.5   4951.4

 TRANSPORT PROPERTIES (GASES ONLY)
   CONDUCTIVITY IN UNITS OF MILLIWATTS/(CM)(K)

 VISC,MILLIPOISE  0.70649  0.70831  0.68128  0.68305  0.68483  0.68661  0.68839  0.69018

  WITH EQUILIBRIUM REACTIONS

 Cp, KJ/(KG)(K)   47.5640  47.8049  43.3285  43.5527  43.7774  44.0027  44.2286  44.4550
 CONDUCTIVITY     67.2865  67.7794  59.1163  59.5789  60.0429  60.5082  60.9749  61.4428
 PRANDTL NUMBER    0.4994   0.4996   0.4993   0.4993   0.4993   0.4993   0.4993   0.4994

  WITH FROZEN REACTIONS

 Cp, KJ/(KG)(K)   20.0028  20.0112  19.8889  19.8976  19.9062  19.9149  19.9235  19.9321
 CONDUCTIVITY     20.1321  20.1897  19.3302  19.3874  19.4447  19.5019  19.5593  19.6166
 PRANDTL NUMBER    0.7020   0.7020   0.7010   0.7010   0.7011   0.7011   0.7012   0.7013

 MOLE FRACTIONS

 *H               0.16965  0.17166  0.13831  0.14008  0.14187  0.14366  0.14547  0.14729
 *H2              0.83035  0.82834  0.86169  0.85992  0.85813  0.85634  0.85453  0.85271

  * THERMODYNAMIC PROPERTIES FITTED TO 20000.K

 NOTE. WEIGHT FRACTION OF FUEL IN TOTAL FUELS AND OF OXIDANT IN TOTAL OXIDANTS









               THERMODYNAMIC EQUILIBRIUM PROPERTIES AT ASSIGNED

                           TEMPERATURE AND PRESSURE

 CASE =                

             REACTANT                    WT FRACTION      ENERGY      TEMP
                                          (SEE NOTE)     KJ/KG-MOL      K  
             H2                           1.0000000         0.000      0.000

 O/F=    0.00000  %FUEL=100.000000  R,EQ.RATIO= 0.000000  PHI,EQ.RATIO= 0.000000

 THERMODYNAMIC PROPERTIES

 P, BAR            540.00   540.00   540.00   540.00   540.00   540.00   540.00   540.00
 T, K             4560.00  4570.00  4580.00  4590.00  4600.00  4610.00  4620.00  4630.00
 RHO, KG/CU M    2.6571 0 2.6486 0 2.6402 0 2.6317 0 2.6233 0 2.6150 0 2.6066 0 2.5983 0
 H, KJ/KG         92473.6  92921.6  93371.8  93824.3  94279.1  94736.2  95195.6  95657.3
 U, KJ/KG         72150.5  72533.5  72918.6  73305.6  73694.7  74085.8  74479.0  74874.1
 G, KJ/KG       -306229.6-307104.4-307980.3-308857.1-309734.9-310613.7-311493.4-312374.2
 S, KJ/(KG)(K)    87.4349  87.5330  87.6315  87.7301  87.8291  87.9284  88.0279  88.1278

 M, (1/n)           1.866    1.864    1.862    1.860    1.858    1.856    1.854    1.852
 (dLV/dLP)t      -1.03704 -1.03749 -1.03795 -1.03840 -1.03887 -1.03933 -1.03979 -1.04026
 (dLV/dLT)p        1.4535   1.4580   1.4626   1.4671   1.4717   1.4763   1.4809   1.4856
 Cp, KJ/(KG)(K)   44.6820  44.9096  45.1377  45.3662  45.5953  45.8249  46.0549  46.2854
 GAMMAs            1.2102   1.2102   1.2102   1.2102   1.2102   1.2103   1.2103   1.2103
 SON VEL,M/SEC     4959.3   4967.2   4975.2   4983.2   4991.2   4999.2   5007.3   5015.4

 TRANSPORT PROPERTIES (GASES ONLY)
   CONDUCTIVITY IN UNITS OF MILLIWATTS/(CM)(K)

 VISC,MILLIPOISE  0.69197  0.69376  0.69555  0.69735  0.69914  0.70094  0.70275  0.70455

  WITH EQUILIBRIUM REACTIONS

 Cp, KJ/(KG)(K)   44.6820  44.9096  45.1377  45.3662  45.5953  45.8249  46.0549  46.2854
 CONDUCTIVITY     61.9120  62.3824  62.8540  63.3267  63.8005  64.2753  64.7512  65.2281
 PRANDTL NUMBER    0.4994   0.4994   0.4995   0.4996   0.4996   0.4997   0.4998   0.4999

  WITH FROZEN REACTIONS

 Cp, KJ/(KG)(K)   19.9406  19.9491  19.9577  19.9662  19.9746  19.9831  19.9915  19.9999
 CONDUCTIVITY     19.6740  19.7313  19.7888  19.8462  19.9036  19.9610  20.0185  20.0759
 PRANDTL NUMBER    0.7013   0.7014   0.7015   0.7016   0.7016   0.7017   0.7018   0.7019

 MOLE FRACTIONS

 *H               0.14913  0.15098  0.15283  0.15471  0.15659  0.15849  0.16040  0.16232
 *H2              0.85087  0.84902  0.84717  0.84529  0.84341  0.84151  0.83960  0.83768

  * THERMODYNAMIC PROPERTIES FITTED TO 20000.K

 NOTE. WEIGHT FRACTION OF FUEL IN TOTAL FUELS AND OF OXIDANT IN TOTAL OXIDANTS









               THERMODYNAMIC EQUILIBRIUM PROPERTIES AT ASSIGNED

                           TEMPERATURE AND PRESSURE

 CASE =                

             REACTANT                    WT FRACTION      ENERGY      TEMP
                                          (SEE NOTE)     KJ/KG-MOL      K  
             H2                           1.0000000         0.000      0.000

 O/F=    0.00000  %FUEL=100.000000  R,EQ.RATIO= 0.000000  PHI,EQ.RATIO= 0.000000

 THERMODYNAMIC PROPERTIES

 P, BAR            540.00   600.00   600.00   600.00   600.00   600.00   600.00   600.00
 T, K             4640.00  4500.00  4510.00  4520.00  4530.00  4540.00  4550.00  4560.00
 RHO, KG/CU M    2.5899 0 3.0198 0 3.0104 0 3.0010 0 2.9916 0 2.9822 0 2.9729 0 2.9636 0
 H, KJ/KG         96121.3  88960.2  89382.7  89807.3  90234.1  90663.0  91094.1  91527.3
 U, KJ/KG         75271.3  69091.4  69451.7  69813.8  70177.9  70543.8  70911.7  71281.5
 G, KJ/KG       -313256.0-298904.0-299766.4-300629.7-301494.0-302359.2-303225.3-304092.5
 S, KJ/(KG)(K)    88.2279  86.1920  86.2858  86.3799  86.4742  86.5688  86.6636  86.7587

 M, (1/n)           1.850    1.883    1.881    1.880    1.878    1.876    1.874    1.873
 (dLV/dLP)t      -1.04073 -1.03277 -1.03318 -1.03360 -1.03402 -1.03445 -1.03488 -1.03531
 (dLV/dLT)p        1.4902   1.4064   1.4107   1.4149   1.4192   1.4236   1.4279   1.4322
 Cp, KJ/(KG)(K)   46.5163  42.1411  42.3549  42.5692  42.7841  42.9996  43.2156  43.4322
 GAMMAs            1.2103   1.2113   1.2113   1.2113   1.2113   1.2112   1.2112   1.2112
 SON VEL,M/SEC     5023.5   4905.9   4913.5   4921.2   4928.8   4936.5   4944.3   4952.0

 TRANSPORT PROPERTIES (GASES ONLY)
   CONDUCTIVITY IN UNITS OF MILLIWATTS/(CM)(K)

 VISC,MILLIPOISE  0.70635  0.67940  0.68115  0.68292  0.68468  0.68645  0.68822  0.68999

  WITH EQUILIBRIUM REACTIONS

 Cp, KJ/(KG)(K)   46.5163  42.1411  42.3549  42.5692  42.7841  42.9996  43.2156  43.4322
 CONDUCTIVITY     65.7059  57.1826  57.6284  58.0755  58.5241  58.9740  59.4252  59.8777
 PRANDTL NUMBER    0.5001   0.5007   0.5006   0.5006   0.5005   0.5005   0.5005   0.5005

  WITH FROZEN REACTIONS

 Cp, KJ/(KG)(K)   20.0082  19.8859  19.8946  19.9032  19.9118  19.9204  19.9290  19.9376
 CONDUCTIVITY     20.1334  19.2731  19.3299  19.3869  19.4438  19.5009  19.5579  19.6150
 PRANDTL NUMBER    0.7020   0.7010   0.7011   0.7011   0.7012   0.7012   0.7013   0.7013

 MOLE FRACTIONS

 *H               0.16425  0.13172  0.13341  0.13512  0.13683  0.13856  0.14031  0.14206
 *H2              0.83575  0.86828  0.86659  0.86488  0.86317  0.86144  0.85969  0.85794

  * THERMODYNAMIC PROPERTIES FITTED TO 20000.K

 NOTE. WEIGHT FRACTION OF FUEL IN TOTAL FUELS AND OF OXIDANT IN TOTAL OXIDANTS









               THERMODYNAMIC EQUILIBRIUM PROPERTIES AT ASSIGNED

                           TEMPERATURE AND PRESSURE

 CASE =                

             REACTANT                    WT FRACTION      ENERGY      TEMP
                                          (SEE NOTE)     KJ/KG-MOL      K  
             H2                           1.0000000         0.000      0.000

 O/F=    0.00000  %FUEL=100.000000  R,EQ.RATIO= 0.000000  PHI,EQ.RATIO= 0.000000

 THERMODYNAMIC PROPERTIES

 P, BAR            600.00   600.00   600.00   600.00   600.00   600.00   600.00   600.00
 T, K             4570.00  4580.00  4590.00  4600.00  4610.00  4620.00  4630.00  4640.00
 RHO, KG/CU M    2.9543 0 2.9450 0 2.9357 0 2.9265 0 2.9173 0 2.9081 0 2.8989 0 2.8898 0
 H, KJ/KG         91962.7  92400.3  92840.0  93282.0  93726.1  94172.5  94621.0  95071.7
 U, KJ/KG         71653.2  72026.8  72402.3  72779.8  73159.1  73540.5  73923.7  74308.9
 G, KJ/KG       -304960.5-305829.5-306699.5-307570.5-308442.4-309315.2-310189.1-311063.9
 S, KJ/(KG)(K)    86.8541  86.9497  87.0457  87.1418  87.2383  87.3350  87.4320  87.5292

 M, (1/n)           1.871    1.869    1.867    1.865    1.864    1.862    1.860    1.858
 (dLV/dLP)t      -1.03574 -1.03618 -1.03662 -1.03706 -1.03750 -1.03795 -1.03840 -1.03885
 (dLV/dLT)p        1.4366   1.4410   1.4454   1.4498   1.4542   1.4587   1.4631   1.4676
 Cp, KJ/(KG)(K)   43.6493  43.8670  44.0852  44.3038  44.5230  44.7426  44.9627  45.1832
 GAMMAs            1.2112   1.2112   1.2112   1.2112   1.2112   1.2113   1.2113   1.2113
 SON VEL,M/SEC     4959.8   4967.6   4975.4   4983.3   4991.2   4999.1   5007.0   5015.0

 TRANSPORT PROPERTIES (GASES ONLY)
   CONDUCTIVITY IN UNITS OF MILLIWATTS/(CM)(K)

 VISC,MILLIPOISE  0.69177  0.69355  0.69533  0.69711  0.69890  0.70069  0.70248  0.70427

  WITH EQUILIBRIUM REACTIONS

 Cp, KJ/(KG)(K)   43.6493  43.8670  44.0852  44.3038  44.5230  44.7426  44.9627  45.1832
 CONDUCTIVITY     60.3315  60.7865  61.2427  61.7000  62.1585  62.6181  63.0787  63.5403
 PRANDTL NUMBER    0.5005   0.5005   0.5005   0.5006   0.5006   0.5007   0.5007   0.5008

  WITH FROZEN REACTIONS

 Cp, KJ/(KG)(K)   19.9461  19.9546  19.9631  19.9715  19.9800  19.9884  19.9968  20.0051
 CONDUCTIVITY     19.6721  19.7293  19.7865  19.8437  19.9009  19.9581  20.0154  20.0726
 PRANDTL NUMBER    0.7014   0.7015   0.7015   0.7016   0.7017   0.7017   0.7018   0.7019

 MOLE FRACTIONS

 *H               0.14383  0.14561  0.14740  0.14920  0.15102  0.15285  0.15469  0.15654
 *H2              0.85617  0.85439  0.85260  0.85080  0.84898  0.84715  0.84531  0.84346

  * THERMODYNAMIC PROPERTIES FITTED TO 20000.K

 NOTE. WEIGHT FRACTION OF FUEL IN TOTAL FUELS AND OF OXIDANT IN TOTAL OXIDANTS









               THERMODYNAMIC EQUILIBRIUM PROPERTIES AT ASSIGNED

                           TEMPERATURE AND PRESSURE

 CASE =                

             REACTANT                    WT FRACTION      ENERGY      TEMP
                                          (SEE NOTE)     KJ/KG-MOL      K  
             H2                           1.0000000         0.000      0.000

 O/F=    0.00000  %FUEL=100.000000  R,EQ.RATIO= 0.000000  PHI,EQ.RATIO= 0.000000

 THERMODYNAMIC PROPERTIES

 P, BAR            670.00   670.00   670.00   670.00   670.00   670.00   670.00   670.00
 T, K             4500.00  4510.00  4520.00  4530.00  4540.00  4550.00  4560.00  4570.00
 RHO, KG/CU M    3.3840 0 3.3736 0 3.3632 0 3.3529 0 3.3425 0 3.3322 0 3.3219 0 3.3117 0
 H, KJ/KG         88093.0  88503.6  88916.3  89330.9  89747.7  90166.5  90587.3  91010.3
 U, KJ/KG         68294.1  68643.6  68994.9  69348.0  69703.0  70059.7  70418.3  70778.7
 G, KJ/KG       -296715.4-297571.0-298427.5-299284.9-300143.2-301002.5-301862.6-302723.7
 S, KJ/(KG)(K)    85.5130  85.6041  85.6955  85.7872  85.8791  85.9712  86.0636  86.1562

 M, (1/n)           1.890    1.888    1.886    1.885    1.883    1.882    1.880    1.878
 (dLV/dLP)t      -1.03114 -1.03154 -1.03194 -1.03234 -1.03275 -1.03316 -1.03357 -1.03399
 (dLV/dLT)p        1.3862   1.3903   1.3944   1.3985   1.4027   1.4068   1.4110   1.4152
 Cp, KJ/(KG)(K)   40.9599  41.1632  41.3671  41.5716  41.7767  41.9823  42.1884  42.3951
 GAMMAs            1.2125   1.2125   1.2124   1.2124   1.2124   1.2124   1.2123   1.2123
 SON VEL,M/SEC     4899.7   4907.1   4914.6   4922.2   4929.7   4937.3   4944.9   4952.5

 TRANSPORT PROPERTIES (GASES ONLY)
   CONDUCTIVITY IN UNITS OF MILLIWATTS/(CM)(K)

 VISC,MILLIPOISE  0.67748  0.67922  0.68096  0.68271  0.68446  0.68622  0.68797  0.68973

  WITH EQUILIBRIUM REACTIONS

 Cp, KJ/(KG)(K)   40.9599  41.1632  41.3671  41.5716  41.7767  41.9823  42.1884  42.3951
 CONDUCTIVITY     55.2436  55.6721  56.1021  56.5334  56.9662  57.4003  57.8357  58.2724
 PRANDTL NUMBER    0.5023   0.5022   0.5021   0.5020   0.5020   0.5019   0.5018   0.5018

  WITH FROZEN REACTIONS

 Cp, KJ/(KG)(K)   19.8829  19.8916  19.9002  19.9088  19.9174  19.9260  19.9345  19.9431
 CONDUCTIVITY     19.2143  19.2708  19.3273  19.3840  19.4406  19.4974  19.5541  19.6109
 PRANDTL NUMBER    0.7011   0.7011   0.7011   0.7012   0.7012   0.7013   0.7014   0.7014

 MOLE FRACTIONS

 *H               0.12512  0.12673  0.12836  0.13000  0.13165  0.13331  0.13499  0.13668
 *H2              0.87488  0.87327  0.87164  0.87000  0.86835  0.86669  0.86501  0.86332

  * THERMODYNAMIC PROPERTIES FITTED TO 20000.K

 NOTE. WEIGHT FRACTION OF FUEL IN TOTAL FUELS AND OF OXIDANT IN TOTAL OXIDANTS









               THERMODYNAMIC EQUILIBRIUM PROPERTIES AT ASSIGNED

                           TEMPERATURE AND PRESSURE

 CASE =                

             REACTANT                    WT FRACTION      ENERGY      TEMP
                                          (SEE NOTE)     KJ/KG-MOL      K  
             H2                           1.0000000         0.000      0.000

 O/F=    0.00000  %FUEL=100.000000  R,EQ.RATIO= 0.000000  PHI,EQ.RATIO= 0.000000

 THERMODYNAMIC PROPERTIES

 P, BAR            670.00   670.00   670.00   670.00   670.00   670.00   670.00   740.00
 T, K             4580.00  4590.00  4600.00  4610.00  4620.00  4630.00  4640.00  4500.00
 RHO, KG/CU M    3.3014 0 3.2912 0 3.2810 0 3.2708 0 3.2607 0 3.2506 0 3.2404 0 3.7489 0
 H, KJ/KG         91435.2  91862.3  92291.4  92722.7  93156.0  93591.4  94028.9  87351.4
 U, KJ/KG         71140.9  71504.9  71870.8  72238.5  72608.1  72979.5  73352.7  67612.3
 G, KJ/KG       -303585.8-304448.7-305312.6-306177.4-307043.2-307909.9-308777.5-294750.9
 S, KJ/(KG)(K)    86.2491  86.3423  86.4357  86.5293  86.6232  86.7173  86.8117  84.9116

 M, (1/n)           1.876    1.875    1.873    1.871    1.869    1.868    1.866    1.895
 (dLV/dLP)t      -1.03440 -1.03482 -1.03525 -1.03567 -1.03610 -1.03653 -1.03696 -1.02974
 (dLV/dLT)p        1.4194   1.4236   1.4278   1.4320   1.4363   1.4405   1.4448   1.3689
 Cp, KJ/(KG)(K)   42.6022  42.8099  43.0181  43.2268  43.4359  43.6455  43.8555  39.9484
 GAMMAs            1.2123   1.2123   1.2123   1.2123   1.2123   1.2123   1.2123   1.2136
 SON VEL,M/SEC     4960.2   4967.8   4975.5   4983.3   4991.0   4998.8   5006.6   4894.4

 TRANSPORT PROPERTIES (GASES ONLY)
   CONDUCTIVITY IN UNITS OF MILLIWATTS/(CM)(K)

 VISC,MILLIPOISE  0.69150  0.69326  0.69503  0.69680  0.69857  0.70035  0.70212  0.67580

  WITH EQUILIBRIUM REACTIONS

 Cp, KJ/(KG)(K)   42.6022  42.8099  43.0181  43.2268  43.4359  43.6455  43.8555  39.9483
 CONDUCTIVITY     58.7104  59.1496  59.5900  60.0316  60.4743  60.9181  61.3630  53.5708
 PRANDTL NUMBER    0.5018   0.5018   0.5017   0.5017   0.5018   0.5018   0.5018   0.5039

  WITH FROZEN REACTIONS

 Cp, KJ/(KG)(K)   19.9516  19.9600  19.9685  19.9769  19.9853  19.9937  20.0021  19.8804
 CONDUCTIVITY     19.6678  19.7247  19.7816  19.8385  19.8955  19.9525  20.0095  19.1623
 PRANDTL NUMBER    0.7015   0.7015   0.7016   0.7017   0.7017   0.7018   0.7019   0.7011

 MOLE FRACTIONS

 *H               0.13837  0.14009  0.14181  0.14354  0.14529  0.14704  0.14881  0.11944
 *H2              0.86163  0.85991  0.85819  0.85646  0.85471  0.85296  0.85119  0.88056

  * THERMODYNAMIC PROPERTIES FITTED TO 20000.K

 NOTE. WEIGHT FRACTION OF FUEL IN TOTAL FUELS AND OF OXIDANT IN TOTAL OXIDANTS









               THERMODYNAMIC EQUILIBRIUM PROPERTIES AT ASSIGNED

                           TEMPERATURE AND PRESSURE

 CASE =                

             REACTANT                    WT FRACTION      ENERGY      TEMP
                                          (SEE NOTE)     KJ/KG-MOL      K  
             H2                           1.0000000         0.000      0.000

 O/F=    0.00000  %FUEL=100.000000  R,EQ.RATIO= 0.000000  PHI,EQ.RATIO= 0.000000

 THERMODYNAMIC PROPERTIES

 P, BAR            740.00   740.00   740.00   740.00   740.00   740.00   740.00   740.00
 T, K             4510.00  4520.00  4530.00  4540.00  4550.00  4560.00  4570.00  4580.00
 RHO, KG/CU M    3.7375 0 3.7262 0 3.7148 0 3.7035 0 3.6922 0 3.6810 0 3.6697 0 3.6585 0
 H, KJ/KG         87751.9  88154.3  88558.6  88964.9  89373.2  89783.5  90195.7  90609.9
 U, KJ/KG         67952.6  68294.6  68638.4  68983.9  69331.1  69680.1  70030.8  70383.2
 G, KJ/KG       -295600.5-296450.9-297302.3-298154.5-299007.6-299861.7-300716.6-301572.5
 S, KJ/(KG)(K)    85.0005  85.0896  85.1790  85.2686  85.3584  85.4485  85.5388  85.6293

 M, (1/n)           1.894    1.892    1.891    1.889    1.888    1.886    1.884    1.883
 (dLV/dLP)t      -1.03012 -1.03051 -1.03089 -1.03128 -1.03168 -1.03207 -1.03247 -1.03287
 (dLV/dLT)p        1.3728   1.3767   1.3807   1.3846   1.3886   1.3926   1.3966   1.4007
 Cp, KJ/(KG)(K)   40.1427  40.3377  40.5332  40.7292  40.9258  41.1229  41.3205  41.5186
 GAMMAs            1.2136   1.2135   1.2135   1.2134   1.2134   1.2134   1.2133   1.2133
 SON VEL,M/SEC     4901.8   4909.2   4916.6   4924.0   4931.4   4938.9   4946.4   4953.9

 TRANSPORT PROPERTIES (GASES ONLY)
   CONDUCTIVITY IN UNITS OF MILLIWATTS/(CM)(K)

 VISC,MILLIPOISE  0.67752  0.67925  0.68099  0.68272  0.68446  0.68620  0.68795  0.68969

  WITH EQUILIBRIUM REACTIONS

 Cp, KJ/(KG)(K)   40.1427  40.3377  40.5332  40.7292  40.9258  41.1229  41.3205  41.5186
 CONDUCTIVITY     53.9842  54.3990  54.8153  55.2329  55.6520  56.0723  56.4940  56.9169
 PRANDTL NUMBER    0.5038   0.5037   0.5036   0.5034   0.5033   0.5033   0.5032   0.5031

  WITH FROZEN REACTIONS

 Cp, KJ/(KG)(K)   19.8890  19.8976  19.9062  19.9148  19.9234  19.9319  19.9405  19.9490
 CONDUCTIVITY     19.2185  19.2747  19.3310  19.3873  19.4437  19.5002  19.5567  19.6132
 PRANDTL NUMBER    0.7012   0.7012   0.7012   0.7013   0.7013   0.7014   0.7014   0.7015

 MOLE FRACTIONS

 *H               0.12099  0.12255  0.12412  0.12570  0.12729  0.12890  0.13051  0.13214
 *H2              0.87901  0.87745  0.87588  0.87430  0.87271  0.87110  0.86949  0.86786

  * THERMODYNAMIC PROPERTIES FITTED TO 20000.K

 NOTE. WEIGHT FRACTION OF FUEL IN TOTAL FUELS AND OF OXIDANT IN TOTAL OXIDANTS









               THERMODYNAMIC EQUILIBRIUM PROPERTIES AT ASSIGNED

                           TEMPERATURE AND PRESSURE

 CASE =                

             REACTANT                    WT FRACTION      ENERGY      TEMP
                                          (SEE NOTE)     KJ/KG-MOL      K  
             H2                           1.0000000         0.000      0.000

 O/F=    0.00000  %FUEL=100.000000  R,EQ.RATIO= 0.000000  PHI,EQ.RATIO= 0.000000

 THERMODYNAMIC PROPERTIES

 P, BAR            740.00   740.00   740.00   740.00   740.00   740.00   825.00   825.00
 T, K             4590.00  4600.00  4610.00  4620.00  4630.00  4640.00  4500.00  4510.00
 RHO, KG/CU M    3.6474 0 3.6362 0 3.6251 0 3.6140 0 3.6029 0 3.5919 0 4.1927 0 4.1802 0
 H, KJ/KG         91026.0  91444.2  91864.4  92286.5  92710.7  93136.9  86580.6  86970.5
 U, KJ/KG         70737.4  71093.4  71451.1  71810.6  72171.8  72534.8  66903.7  67234.4
 G, KJ/KG       -302429.2-303286.9-304145.4-305004.9-305865.3-306726.6-292608.1-293451.1
 S, KJ/(KG)(K)    85.7201  85.8111  85.9023  85.9938  86.0855  86.1775  84.2642  84.3507

 M, (1/n)           1.881    1.879    1.878    1.876    1.874    1.873    1.901    1.900
 (dLV/dLP)t      -1.03327 -1.03368 -1.03409 -1.03450 -1.03491 -1.03533 -1.02827 -1.02864
 (dLV/dLT)p        1.4047   1.4088   1.4129   1.4169   1.4211   1.4252   1.3507   1.3544
 Cp, KJ/(KG)(K)   41.7173  41.9164  42.1160  42.3160  42.5166  42.7175  38.8957  39.0806
 GAMMAs            1.2133   1.2133   1.2133   1.2133   1.2133   1.2133   1.2148   1.2147
 SON VEL,M/SEC     4961.5   4969.0   4976.6   4984.3   4991.9   4999.6   4889.1   4896.3

 TRANSPORT PROPERTIES (GASES ONLY)
   CONDUCTIVITY IN UNITS OF MILLIWATTS/(CM)(K)

 VISC,MILLIPOISE  0.69144  0.69320  0.69495  0.69671  0.69847  0.70023  0.67401  0.67572

  WITH EQUILIBRIUM REACTIONS

 Cp, KJ/(KG)(K)   41.7173  41.9164  42.1160  42.3160  42.5166  42.7175  38.8956  39.0806
 CONDUCTIVITY     57.3411  57.7666  58.1932  58.6211  59.0500  59.4801  51.8178  52.2151
 PRANDTL NUMBER    0.5030   0.5030   0.5030   0.5029   0.5029   0.5029   0.5059   0.5057

  WITH FROZEN REACTIONS

 Cp, KJ/(KG)(K)   19.9574  19.9659  19.9743  19.9827  19.9911  19.9995  19.8777  19.8863
 CONDUCTIVITY     19.6698  19.7265  19.7831  19.8398  19.8966  19.9533  19.1067  19.1624
 PRANDTL NUMBER    0.7016   0.7016   0.7017   0.7017   0.7018   0.7019   0.7012   0.7012

 MOLE FRACTIONS

 *H               0.13378  0.13543  0.13710  0.13877  0.14046  0.14215  0.11350  0.11498
 *H2              0.86622  0.86457  0.86290  0.86123  0.85954  0.85785  0.88650  0.88502

  * THERMODYNAMIC PROPERTIES FITTED TO 20000.K

 NOTE. WEIGHT FRACTION OF FUEL IN TOTAL FUELS AND OF OXIDANT IN TOTAL OXIDANTS









               THERMODYNAMIC EQUILIBRIUM PROPERTIES AT ASSIGNED

                           TEMPERATURE AND PRESSURE

 CASE =                

             REACTANT                    WT FRACTION      ENERGY      TEMP
                                          (SEE NOTE)     KJ/KG-MOL      K  
             H2                           1.0000000         0.000      0.000

 O/F=    0.00000  %FUEL=100.000000  R,EQ.RATIO= 0.000000  PHI,EQ.RATIO= 0.000000

 THERMODYNAMIC PROPERTIES

 P, BAR            825.00   825.00   825.00   825.00   825.00   825.00   825.00   825.00
 T, K             4520.00  4530.00  4540.00  4550.00  4560.00  4570.00  4580.00  4590.00
 RHO, KG/CU M    4.1676 0 4.1551 0 4.1426 0 4.1302 0 4.1178 0 4.1054 0 4.0930 0 4.0807 0
 H, KJ/KG         87362.2  87755.8  88151.3  88548.6  88947.8  89348.9  89751.8  90156.7
 U, KJ/KG         67566.8  67900.8  68236.4  68573.7  68912.7  69253.3  69595.6  69939.6
 G, KJ/KG       -294295.0-295139.9-295985.5-296832.1-297679.5-298527.8-299377.0-300227.1
 S, KJ/(KG)(K)    84.4375  84.5244  84.6116  84.6991  84.7867  84.8746  84.9626  85.0509

 M, (1/n)           1.898    1.897    1.895    1.894    1.892    1.891    1.889    1.888
 (dLV/dLP)t      -1.02900 -1.02937 -1.02975 -1.03012 -1.03050 -1.03088 -1.03126 -1.03165
 (dLV/dLT)p        1.3582   1.3620   1.3658   1.3696   1.3734   1.3772   1.3811   1.3850
 Cp, KJ/(KG)(K)   39.2662  39.4522  39.6388  39.8259  40.0136  40.2017  40.3904  40.5795
 GAMMAs            1.2147   1.2146   1.2146   1.2145   1.2145   1.2145   1.2144   1.2144
 SON VEL,M/SEC     4903.6   4910.9   4918.2   4925.5   4932.8   4940.2   4947.6   4955.0

 TRANSPORT PROPERTIES (GASES ONLY)
   CONDUCTIVITY IN UNITS OF MILLIWATTS/(CM)(K)

 VISC,MILLIPOISE  0.67743  0.67915  0.68086  0.68259  0.68431  0.68604  0.68777  0.68950

  WITH EQUILIBRIUM REACTIONS

 Cp, KJ/(KG)(K)   39.2662  39.4522  39.6388  39.8259  40.0136  40.2017  40.3904  40.5795
 CONDUCTIVITY     52.6138  53.0139  53.4154  53.8184  54.2226  54.6282  55.0351  55.4433
 PRANDTL NUMBER    0.5056   0.5054   0.5053   0.5051   0.5050   0.5049   0.5048   0.5047

  WITH FROZEN REACTIONS

 Cp, KJ/(KG)(K)   19.8950  19.9036  19.9122  19.9207  19.9293  19.9378  19.9463  19.9547
 CONDUCTIVITY     19.2183  19.2742  19.3301  19.3861  19.4422  19.4983  19.5545  19.6108
 PRANDTL NUMBER    0.7013   0.7013   0.7014   0.7014   0.7015   0.7015   0.7015   0.7016

 MOLE FRACTIONS

 *H               0.11646  0.11796  0.11947  0.12099  0.12252  0.12407  0.12562  0.12719
 *H2              0.88354  0.88204  0.88053  0.87901  0.87748  0.87593  0.87438  0.87281

  * THERMODYNAMIC PROPERTIES FITTED TO 20000.K

 NOTE. WEIGHT FRACTION OF FUEL IN TOTAL FUELS AND OF OXIDANT IN TOTAL OXIDANTS









               THERMODYNAMIC EQUILIBRIUM PROPERTIES AT ASSIGNED

                           TEMPERATURE AND PRESSURE

 CASE =                

             REACTANT                    WT FRACTION      ENERGY      TEMP
                                          (SEE NOTE)     KJ/KG-MOL      K  
             H2                           1.0000000         0.000      0.000

 O/F=    0.00000  %FUEL=100.000000  R,EQ.RATIO= 0.000000  PHI,EQ.RATIO= 0.000000

 THERMODYNAMIC PROPERTIES

 P, BAR            825.00   825.00   825.00   825.00   825.00   910.00   910.00   910.00
 T, K             4600.00  4610.00  4620.00  4630.00  4640.00  4500.00  4510.00  4520.00
 RHO, KG/CU M    4.0684 0 4.0561 0 4.0439 0 4.0317 0 4.0195 0 4.6373 0 4.6235 0 4.6098 0
 H, KJ/KG         90563.4  90972.1  91382.6  91795.1  92209.4  85920.2  86301.0  86683.6
 U, KJ/KG         70285.2  70632.5  70981.5  71332.1  71684.5  66296.5  66619.0  66943.0
 G, KJ/KG       -301078.0-301929.9-302782.6-303636.2-304490.7-290681.1-291518.4-292356.6
 S, KJ/(KG)(K)    85.1395  85.2282  85.3171  85.4063  85.4957  83.6892  83.7737  83.8584

 M, (1/n)           1.886    1.884    1.883    1.881    1.880    1.907    1.905    1.904
 (dLV/dLP)t      -1.03204 -1.03243 -1.03282 -1.03322 -1.03362 -1.02701 -1.02736 -1.02771
 (dLV/dLT)p        1.3889   1.3928   1.3967   1.4006   1.4045   1.3350   1.3386   1.3422
 Cp, KJ/(KG)(K)   40.7691  40.9592  41.1497  41.3407  41.5322  37.9926  38.1695  38.3469
 GAMMAs            1.2144   1.2144   1.2143   1.2143   1.2143   1.2159   1.2158   1.2157
 SON VEL,M/SEC     4962.4   4969.9   4977.4   4984.9   4992.4   4884.7   4891.8   4898.9

 TRANSPORT PROPERTIES (GASES ONLY)
   CONDUCTIVITY IN UNITS OF MILLIWATTS/(CM)(K)

 VISC,MILLIPOISE  0.69124  0.69298  0.69472  0.69646  0.69821  0.67245  0.67414  0.67583

  WITH EQUILIBRIUM REACTIONS

 Cp, KJ/(KG)(K)   40.7691  40.9592  41.1497  41.3407  41.5322  37.9926  38.1695  38.3469
 CONDUCTIVITY     55.8527  56.2634  56.6752  57.0883  57.5025  50.3039  50.6871  51.0717
 PRANDTL NUMBER    0.5046   0.5045   0.5044   0.5043   0.5043   0.5079   0.5077   0.5074

  WITH FROZEN REACTIONS

 Cp, KJ/(KG)(K)   19.9632  19.9716  19.9800  19.9884  19.9968  19.8754  19.8841  19.8927
 CONDUCTIVITY     19.6671  19.7234  19.7798  19.8362  19.8927  19.0577  19.1130  19.1685
 PRANDTL NUMBER    0.7016   0.7017   0.7018   0.7018   0.7019   0.7013   0.7013   0.7014

 MOLE FRACTIONS

 *H               0.12876  0.13035  0.13195  0.13356  0.13518  0.10838  0.10979  0.11122
 *H2              0.87124  0.86965  0.86805  0.86644  0.86482  0.89162  0.89021  0.88878

  * THERMODYNAMIC PROPERTIES FITTED TO 20000.K

 NOTE. WEIGHT FRACTION OF FUEL IN TOTAL FUELS AND OF OXIDANT IN TOTAL OXIDANTS









               THERMODYNAMIC EQUILIBRIUM PROPERTIES AT ASSIGNED

                           TEMPERATURE AND PRESSURE

 CASE =                

             REACTANT                    WT FRACTION      ENERGY      TEMP
                                          (SEE NOTE)     KJ/KG-MOL      K  
             H2                           1.0000000         0.000      0.000

 O/F=    0.00000  %FUEL=100.000000  R,EQ.RATIO= 0.000000  PHI,EQ.RATIO= 0.000000

 THERMODYNAMIC PROPERTIES

 P, BAR            910.00   910.00   910.00   910.00   910.00   910.00   910.00   910.00
 T, K             4530.00  4540.00  4550.00  4560.00  4570.00  4580.00  4590.00  4600.00
 RHO, KG/CU M    4.5961 0 4.5825 0 4.5689 0 4.5553 0 4.5418 0 4.5283 0 4.5148 0 4.5014 0
 H, KJ/KG         87067.9  87454.0  87842.0  88231.7  88623.2  89016.5  89411.7  89808.6
 U, KJ/KG         67268.7  67595.9  67924.7  68255.1  68587.0  68920.6  69255.8  69592.5
 G, KJ/KG       -293195.6-294035.5-294876.2-295717.7-296560.2-297403.4-298247.6-299092.6
 S, KJ/(KG)(K)    83.9434  84.0285  84.1139  84.1994  84.2852  84.3712  84.4574  84.5437

 M, (1/n)           1.902    1.901    1.899    1.898    1.896    1.895    1.893    1.892
 (dLV/dLP)t      -1.02806 -1.02842 -1.02878 -1.02914 -1.02951 -1.02988 -1.03025 -1.03062
 (dLV/dLT)p        1.3458   1.3494   1.3531   1.3568   1.3605   1.3642   1.3679   1.3716
 Cp, KJ/(KG)(K)   38.5248  38.7033  38.8822  39.0617  39.2417  39.4221  39.6030  39.7844
 GAMMAs            1.2157   1.2156   1.2156   1.2155   1.2155   1.2154   1.2154   1.2154
 SON VEL,M/SEC     4906.1   4913.3   4920.5   4927.7   4934.9   4942.2   4949.5   4956.8

 TRANSPORT PROPERTIES (GASES ONLY)
   CONDUCTIVITY IN UNITS OF MILLIWATTS/(CM)(K)

 VISC,MILLIPOISE  0.67753  0.67924  0.68094  0.68265  0.68436  0.68608  0.68780  0.68952

  WITH EQUILIBRIUM REACTIONS

 Cp, KJ/(KG)(K)   38.5248  38.7033  38.8822  39.0617  39.2417  39.4221  39.6030  39.7844
 CONDUCTIVITY     51.4577  51.8451  52.2339  52.6240  53.0155  53.4082  53.8023  54.1976
 PRANDTL NUMBER    0.5072   0.5071   0.5069   0.5067   0.5066   0.5064   0.5063   0.5061

  WITH FROZEN REACTIONS

 Cp, KJ/(KG)(K)   19.9013  19.9099  19.9184  19.9269  19.9355  19.9440  19.9524  19.9609
 CONDUCTIVITY     19.2240  19.2796  19.3352  19.3910  19.4467  19.5026  19.5585  19.6144
 PRANDTL NUMBER    0.7014   0.7014   0.7015   0.7015   0.7016   0.7016   0.7017   0.7017

 MOLE FRACTIONS

 *H               0.11265  0.11410  0.11556  0.11703  0.11850  0.11999  0.12149  0.12300
 *H2              0.88735  0.88590  0.88444  0.88297  0.88150  0.88001  0.87851  0.87700

  * THERMODYNAMIC PROPERTIES FITTED TO 20000.K

 NOTE. WEIGHT FRACTION OF FUEL IN TOTAL FUELS AND OF OXIDANT IN TOTAL OXIDANTS









               THERMODYNAMIC EQUILIBRIUM PROPERTIES AT ASSIGNED

                           TEMPERATURE AND PRESSURE

 CASE =                

             REACTANT                    WT FRACTION      ENERGY      TEMP
                                          (SEE NOTE)     KJ/KG-MOL      K  
             H2                           1.0000000         0.000      0.000

 O/F=    0.00000  %FUEL=100.000000  R,EQ.RATIO= 0.000000  PHI,EQ.RATIO= 0.000000

 THERMODYNAMIC PROPERTIES

 P, BAR            910.00   910.00   910.00   910.00
 T, K             4610.00  4620.00  4630.00  4640.00
 RHO, KG/CU M    4.4880 0 4.4746 0 4.4612 0 4.4479 0
 H, KJ/KG         90207.3  90607.9  91010.3  91414.5
 U, KJ/KG         69930.9  70270.9  70612.4  70955.6
 G, KJ/KG       -299938.5-300785.2-301632.8-302481.3
 S, KJ/(KG)(K)    84.6303  84.7171  84.8041  84.8913

 M, (1/n)           1.890    1.889    1.887    1.886
 (dLV/dLP)t      -1.03099 -1.03137 -1.03175 -1.03214
 (dLV/dLT)p        1.3754   1.3792   1.3829   1.3867
 Cp, KJ/(KG)(K)   39.9663  40.1486  40.3313  40.5145
 GAMMAs            1.2153   1.2153   1.2153   1.2153
 SON VEL,M/SEC     4964.2   4971.5   4978.9   4986.3

 TRANSPORT PROPERTIES (GASES ONLY)
   CONDUCTIVITY IN UNITS OF MILLIWATTS/(CM)(K)

 VISC,MILLIPOISE  0.69124  0.69297  0.69470  0.69643

  WITH EQUILIBRIUM REACTIONS

 Cp, KJ/(KG)(K)   39.9663  40.1486  40.3313  40.5145
 CONDUCTIVITY     54.5942  54.9920  55.3910  55.7911
 PRANDTL NUMBER    0.5060   0.5059   0.5058   0.5057

  WITH FROZEN REACTIONS

 Cp, KJ/(KG)(K)   19.9693  19.9777  19.9861  19.9944
 CONDUCTIVITY     19.6704  19.7265  19.7826  19.8388
 PRANDTL NUMBER    0.7017   0.7018   0.7018   0.7019

 MOLE FRACTIONS

 *H               0.12453  0.12606  0.12760  0.12916
 *H2              0.87547  0.87394  0.87240  0.87084

  * THERMODYNAMIC PROPERTIES FITTED TO 20000.K

 NOTE. WEIGHT FRACTION OF FUEL IN TOTAL FUELS AND OF OXIDANT IN TOTAL OXIDANTS



  
