
 *******************************************************************************

         NASA-GLENN CHEMICAL EQUILIBRIUM PROGRAM CEA2, MAY 21, 2004
                   BY  BONNIE MCBRIDE AND SANFORD GORDON
      REFS: NASA RP-1311, PART I, 1994 AND NASA RP-1311, PART II, 1996

 *******************************************************************************



  prob tp ions
  p,bar= 2.5,2.8,3.1,3.5,3.9,4.4,4.9,5.4,6.0,6.7,7.4,8.25,9.1,10.0,11.0
  t,k= 7500,7510,7520,7530,7540,7550,7560,7570,7580,7590,7600,7610,7620,7630,7640
  
  reac
  na H2                wt%=100.0000
  
  output short
  output siunits
  output transport
  
 end





               THERMODYNAMIC EQUILIBRIUM PROPERTIES AT ASSIGNED

                           TEMPERATURE AND PRESSURE

 CASE =                

             REACTANT                    WT FRACTION      ENERGY      TEMP
                                          (SEE NOTE)     KJ/KG-MOL      K  
             H2                           1.0000000         0.000      0.000

 O/F=    0.00000  %FUEL=100.000000  R,EQ.RATIO= 0.000000  PHI,EQ.RATIO= 0.000000

 THERMODYNAMIC PROPERTIES

 P, BAR            2.5000   2.5000   2.5000   2.5000   2.5000   2.5000   2.5000   2.5000
 T, K             7500.00  7510.00  7520.00  7530.00  7540.00  7550.00  7560.00  7570.00
 RHO, KG/CU M    4.0440-3 4.0385-3 4.0330-3 4.0275-3 4.0221-3 4.0167-3 4.0113-3 4.0059-3
 H, KJ/KG        365132.1 365360.9 365589.9 365819.0 366048.3 366277.7 366507.2 366736.9
 U, KJ/KG        303311.5 303456.3 303601.3 303746.4 303891.7 304037.1 304182.7 304328.4
 G, KJ/KG       -931106.1-932834.6-934563.4-936292.4-938021.8-939751.5-941481.5-943211.8
 S, KJ/(KG)(K)   172.8318 172.8623 172.8927 172.9232 172.9536 172.9840 173.0144 173.0447

 M, (1/n)           1.009    1.009    1.009    1.009    1.009    1.009    1.009    1.009
 (dLV/dLP)t      -1.00179 -1.00178 -1.00177 -1.00176 -1.00175 -1.00174 -1.00174 -1.00173
 (dLV/dLT)p        1.0188   1.0188   1.0188   1.0188   1.0188   1.0188   1.0189   1.0189
 Cp, KJ/(KG)(K)   22.8777  22.8909  22.9045  22.9184  22.9326  22.9472  22.9621  22.9773
 GAMMAs            1.5929   1.5924   1.5919   1.5913   1.5908   1.5903   1.5897   1.5892
 SON VEL,M/SEC     9923.3   9928.5   9933.6   9938.7   9943.8   9948.8   9953.8   9958.8

 TRANSPORT PROPERTIES (GASES ONLY)
   CONDUCTIVITY IN UNITS OF MILLIWATTS/(CM)(K)

 VISC,MILLIPOISE  0.77709  0.77797  0.77884  0.77972  0.78059  0.78146  0.78233  0.78320

  WITH EQUILIBRIUM REACTIONS

 Cp, KJ/(KG)(K)   22.8777  22.8909  22.9045  22.9184  22.9326  22.9472  22.9621  22.9773
 CONDUCTIVITY     25.3873  25.4102  25.4333  25.4566  25.4800  25.5036  25.5274  25.5513
 PRANDTL NUMBER    0.7003   0.7008   0.7014   0.7020   0.7025   0.7031   0.7037   0.7043

  WITH FROZEN REACTIONS

 Cp, KJ/(KG)(K)   20.6482  20.6485  20.6489  20.6492  20.6495  20.6499  20.6502  20.6505
 CONDUCTIVITY     24.1305  24.1597  24.1889  24.2180  24.2472  24.2763  24.3054  24.3345
 PRANDTL NUMBER    0.6649   0.6649   0.6649   0.6648   0.6648   0.6647   0.6647   0.6646

 MOLE FRACTIONS

 *e-              0.00069  0.00070  0.00071  0.00072  0.00073  0.00074  0.00075  0.00077
 *H               0.99718  0.99717  0.99716  0.99716  0.99715  0.99714  0.99713  0.99712
 *H+              0.00069  0.00070  0.00071  0.00072  0.00073  0.00074  0.00075  0.00077
 *H2              0.00145  0.00143  0.00142  0.00140  0.00139  0.00138  0.00136  0.00135

  * THERMODYNAMIC PROPERTIES FITTED TO 20000.K

 NOTE. WEIGHT FRACTION OF FUEL IN TOTAL FUELS AND OF OXIDANT IN TOTAL OXIDANTS









               THERMODYNAMIC EQUILIBRIUM PROPERTIES AT ASSIGNED

                           TEMPERATURE AND PRESSURE

 CASE =                

             REACTANT                    WT FRACTION      ENERGY      TEMP
                                          (SEE NOTE)     KJ/KG-MOL      K  
             H2                           1.0000000         0.000      0.000

 O/F=    0.00000  %FUEL=100.000000  R,EQ.RATIO= 0.000000  PHI,EQ.RATIO= 0.000000

 THERMODYNAMIC PROPERTIES

 P, BAR            2.5000   2.5000   2.5000   2.5000   2.5000   2.5000   2.5000   2.8000
 T, K             7580.00  7590.00  7600.00  7610.00  7620.00  7630.00  7640.00  7500.00
 RHO, KG/CU M    4.0005-3 3.9951-3 3.9897-3 3.9844-3 3.9791-3 3.9738-3 3.9685-3 4.5302-3
 H, KJ/KG        366966.8 367196.8 367427.0 367657.3 367887.8 368118.5 368349.3 364997.4
 U, KJ/KG        304474.2 304620.2 304766.4 304912.7 305059.2 305205.9 305352.7 303189.8
 G, KJ/KG       -944942.4-946673.3-948404.5-950136.0-951867.8-953599.9-955332.4-924100.8
 S, KJ/(KG)(K)   173.0751 173.1054 173.1357 173.1660 173.1963 173.2265 173.2568 171.8798

 M, (1/n)           1.009    1.008    1.008    1.008    1.008    1.008    1.008    1.009
 (dLV/dLP)t      -1.00172 -1.00172 -1.00171 -1.00170 -1.00170 -1.00169 -1.00169 -1.00194
 (dLV/dLT)p        1.0189   1.0189   1.0189   1.0190   1.0190   1.0190   1.0191   1.0197
 Cp, KJ/(KG)(K)   22.9929  23.0089  23.0252  23.0418  23.0587  23.0761  23.0937  22.8686
 GAMMAs            1.5886   1.5880   1.5875   1.5869   1.5863   1.5857   1.5851   1.5942
 SON VEL,M/SEC     9963.7   9968.7   9973.5   9978.4   9983.2   9988.0   9992.7   9926.5

 TRANSPORT PROPERTIES (GASES ONLY)
   CONDUCTIVITY IN UNITS OF MILLIWATTS/(CM)(K)

 VISC,MILLIPOISE  0.78407  0.78494  0.78581  0.78667  0.78754  0.78840  0.78926  0.77768

  WITH EQUILIBRIUM REACTIONS

 Cp, KJ/(KG)(K)   22.9929  23.0089  23.0252  23.0418  23.0587  23.0761  23.0937  22.8686
 CONDUCTIVITY     25.5754  25.5997  25.6242  25.6487  25.6735  25.6984  25.7235  25.4923
 PRANDTL NUMBER    0.7049   0.7055   0.7061   0.7067   0.7073   0.7079   0.7086   0.6976

  WITH FROZEN REACTIONS

 Cp, KJ/(KG)(K)   20.6509  20.6512  20.6516  20.6519  20.6522  20.6526  20.6529  20.6475
 CONDUCTIVITY     24.3636  24.3927  24.4217  24.4508  24.4798  24.5087  24.5377  24.1392
 PRANDTL NUMBER    0.6646   0.6645   0.6645   0.6644   0.6644   0.6644   0.6643   0.6652

 MOLE FRACTIONS

 *e-              0.00078  0.00079  0.00080  0.00081  0.00083  0.00084  0.00085  0.00065
 *H               0.99711  0.99710  0.99708  0.99707  0.99706  0.99705  0.99703  0.99708
 *H+              0.00078  0.00079  0.00080  0.00081  0.00083  0.00084  0.00085  0.00065
 *H2              0.00134  0.00132  0.00131  0.00130  0.00129  0.00127  0.00126  0.00162

  * THERMODYNAMIC PROPERTIES FITTED TO 20000.K

 NOTE. WEIGHT FRACTION OF FUEL IN TOTAL FUELS AND OF OXIDANT IN TOTAL OXIDANTS









               THERMODYNAMIC EQUILIBRIUM PROPERTIES AT ASSIGNED

                           TEMPERATURE AND PRESSURE

 CASE =                

             REACTANT                    WT FRACTION      ENERGY      TEMP
                                          (SEE NOTE)     KJ/KG-MOL      K  
             H2                           1.0000000         0.000      0.000

 O/F=    0.00000  %FUEL=100.000000  R,EQ.RATIO= 0.000000  PHI,EQ.RATIO= 0.000000

 THERMODYNAMIC PROPERTIES

 P, BAR            2.8000   2.8000   2.8000   2.8000   2.8000   2.8000   2.8000   2.8000
 T, K             7510.00  7520.00  7530.00  7540.00  7550.00  7560.00  7570.00  7580.00
 RHO, KG/CU M    4.5240-3 4.5179-3 4.5118-3 4.5057-3 4.4996-3 4.4935-3 4.4875-3 4.4814-3
 H, KJ/KG        365226.2 365455.0 365684.0 365913.1 366142.3 366371.6 366601.1 366830.7
 U, KJ/KG        303334.5 303479.3 303624.3 303769.3 303914.5 304059.8 304205.2 304350.8
 G, KJ/KG       -925819.7-927539.0-929258.6-930978.4-932698.6-934419.1-936139.8-937860.9
 S, KJ/(KG)(K)   171.9102 171.9407 171.9711 172.0015 172.0319 172.0623 172.0926 172.1229

 M, (1/n)           1.009    1.009    1.009    1.009    1.009    1.009    1.009    1.009
 (dLV/dLP)t      -1.00193 -1.00192 -1.00191 -1.00190 -1.00189 -1.00188 -1.00187 -1.00186
 (dLV/dLT)p        1.0196   1.0196   1.0196   1.0196   1.0196   1.0196   1.0196   1.0196
 Cp, KJ/(KG)(K)   22.8797  22.8911  22.9029  22.9150  22.9274  22.9402  22.9533  22.9668
 GAMMAs            1.5938   1.5933   1.5928   1.5924   1.5919   1.5914   1.5909   1.5904
 SON VEL,M/SEC     9931.8   9937.1   9942.4   9947.6   9952.8   9958.0   9963.2   9968.3

 TRANSPORT PROPERTIES (GASES ONLY)
   CONDUCTIVITY IN UNITS OF MILLIWATTS/(CM)(K)

 VISC,MILLIPOISE  0.77856  0.77943  0.78031  0.78119  0.78206  0.78294  0.78381  0.78469

  WITH EQUILIBRIUM REACTIONS

 Cp, KJ/(KG)(K)   22.8797  22.8911  22.9029  22.9150  22.9274  22.9402  22.9533  22.9668
 CONDUCTIVITY     25.5138  25.5354  25.5573  25.5793  25.6015  25.6239  25.6465  25.6693
 PRANDTL NUMBER    0.6982   0.6987   0.6993   0.6998   0.7004   0.7009   0.7015   0.7021

  WITH FROZEN REACTIONS

 Cp, KJ/(KG)(K)   20.6478  20.6481  20.6484  20.6488  20.6491  20.6494  20.6497  20.6501
 CONDUCTIVITY     24.1684  24.1977  24.2269  24.2561  24.2853  24.3145  24.3437  24.3728
 PRANDTL NUMBER    0.6651   0.6651   0.6651   0.6650   0.6650   0.6649   0.6649   0.6648

 MOLE FRACTIONS

 *e-              0.00066  0.00067  0.00068  0.00069  0.00070  0.00071  0.00072  0.00073
 *H               0.99708  0.99707  0.99707  0.99706  0.99705  0.99705  0.99704  0.99703
 *H+              0.00066  0.00067  0.00068  0.00069  0.00070  0.00071  0.00072  0.00073
 *H2              0.00160  0.00159  0.00157  0.00156  0.00154  0.00153  0.00151  0.00150

  * THERMODYNAMIC PROPERTIES FITTED TO 20000.K

 NOTE. WEIGHT FRACTION OF FUEL IN TOTAL FUELS AND OF OXIDANT IN TOTAL OXIDANTS









               THERMODYNAMIC EQUILIBRIUM PROPERTIES AT ASSIGNED

                           TEMPERATURE AND PRESSURE

 CASE =                

             REACTANT                    WT FRACTION      ENERGY      TEMP
                                          (SEE NOTE)     KJ/KG-MOL      K  
             H2                           1.0000000         0.000      0.000

 O/F=    0.00000  %FUEL=100.000000  R,EQ.RATIO= 0.000000  PHI,EQ.RATIO= 0.000000

 THERMODYNAMIC PROPERTIES

 P, BAR            2.8000   2.8000   2.8000   2.8000   2.8000   2.8000   3.1000   3.1000
 T, K             7590.00  7600.00  7610.00  7620.00  7630.00  7640.00  7500.00  7510.00
 RHO, KG/CU M    4.4754-3 4.4694-3 4.4634-3 4.4575-3 4.4515-3 4.4456-3 5.0166-3 5.0098-3
 H, KJ/KG        367060.4 367290.3 367520.3 367750.5 367980.8 368211.3 364871.0 365099.8
 U, KJ/KG        304496.5 304642.3 304788.3 304934.4 305080.7 305227.1 303076.1 303220.8
 G, KJ/KG       -939582.3-941304.0-943026.0-944748.2-946470.8-948193.7-917810.5-919520.9
 S, KJ/(KG)(K)   172.1532 172.1835 172.2137 172.2439 172.2741 172.3043 171.0242 171.0547

 M, (1/n)           1.009    1.009    1.009    1.009    1.009    1.009    1.009    1.009
 (dLV/dLP)t      -1.00185 -1.00184 -1.00184 -1.00183 -1.00182 -1.00181 -1.00209 -1.00208
 (dLV/dLT)p        1.0196   1.0196   1.0196   1.0196   1.0196   1.0196   1.0206   1.0205
 Cp, KJ/(KG)(K)   22.9806  22.9947  23.0092  23.0240  23.0392  23.0547  22.8724  22.8815
 GAMMAs            1.5899   1.5893   1.5888   1.5883   1.5877   1.5872   1.5951   1.5947
 SON VEL,M/SEC     9973.4   9978.4   9983.5   9988.4   9993.4   9998.3   9928.3   9933.8

 TRANSPORT PROPERTIES (GASES ONLY)
   CONDUCTIVITY IN UNITS OF MILLIWATTS/(CM)(K)

 VISC,MILLIPOISE  0.78556  0.78643  0.78730  0.78816  0.78903  0.78990  0.77822  0.77910

  WITH EQUILIBRIUM REACTIONS

 Cp, KJ/(KG)(K)   22.9806  22.9947  23.0092  23.0240  23.0392  23.0547  22.8724  22.8815
 CONDUCTIVITY     25.6923  25.7154  25.7387  25.7622  25.7858  25.8096  25.5990  25.6190
 PRANDTL NUMBER    0.7026   0.7032   0.7038   0.7044   0.7050   0.7056   0.6953   0.6958

  WITH FROZEN REACTIONS

 Cp, KJ/(KG)(K)   20.6504  20.6507  20.6510  20.6513  20.6516  20.6520  20.6469  20.6472
 CONDUCTIVITY     24.4019  24.4310  24.4601  24.4892  24.5183  24.5473  24.1473  24.1766
 PRANDTL NUMBER    0.6648   0.6647   0.6647   0.6646   0.6646   0.6646   0.6654   0.6654

 MOLE FRACTIONS

 *e-              0.00075  0.00076  0.00077  0.00078  0.00079  0.00081  0.00062  0.00063
 *H               0.99702  0.99702  0.99701  0.99700  0.99699  0.99698  0.99697  0.99697
 *H+              0.00075  0.00076  0.00077  0.00078  0.00079  0.00080  0.00062  0.00063
 *H2              0.00148  0.00147  0.00145  0.00144  0.00143  0.00141  0.00179  0.00177

  * THERMODYNAMIC PROPERTIES FITTED TO 20000.K

 NOTE. WEIGHT FRACTION OF FUEL IN TOTAL FUELS AND OF OXIDANT IN TOTAL OXIDANTS









               THERMODYNAMIC EQUILIBRIUM PROPERTIES AT ASSIGNED

                           TEMPERATURE AND PRESSURE

 CASE =                

             REACTANT                    WT FRACTION      ENERGY      TEMP
                                          (SEE NOTE)     KJ/KG-MOL      K  
             H2                           1.0000000         0.000      0.000

 O/F=    0.00000  %FUEL=100.000000  R,EQ.RATIO= 0.000000  PHI,EQ.RATIO= 0.000000

 THERMODYNAMIC PROPERTIES

 P, BAR            3.1000   3.1000   3.1000   3.1000   3.1000   3.1000   3.1000   3.1000
 T, K             7520.00  7530.00  7540.00  7550.00  7560.00  7570.00  7580.00  7590.00
 RHO, KG/CU M    5.0030-3 4.9962-3 4.9894-3 4.9827-3 4.9760-3 4.9693-3 4.9626-3 4.9559-3
 H, KJ/KG        365328.7 365557.6 365786.7 366015.8 366245.1 366474.5 366704.0 366933.6
 U, KJ/KG        303365.6 303510.4 303655.4 303800.5 303945.7 304091.0 304236.4 304381.9
 G, KJ/KG       -921231.6-922942.6-924653.9-926365.5-928077.4-929789.6-931502.2-933215.0
 S, KJ/(KG)(K)   171.0851 171.1156 171.1460 171.1763 171.2067 171.2370 171.2673 171.2976

 M, (1/n)           1.009    1.009    1.009    1.009    1.009    1.009    1.009    1.009
 (dLV/dLP)t      -1.00207 -1.00206 -1.00205 -1.00203 -1.00202 -1.00201 -1.00200 -1.00199
 (dLV/dLT)p        1.0205   1.0204   1.0204   1.0204   1.0204   1.0203   1.0203   1.0203
 Cp, KJ/(KG)(K)   22.8909  22.9007  22.9109  22.9214  22.9322  22.9434  22.9549  22.9668
 GAMMAs            1.5943   1.5939   1.5935   1.5931   1.5926   1.5922   1.5917   1.5912
 SON VEL,M/SEC     9939.3   9944.8   9950.2   9955.5   9960.9   9966.2   9971.5   9976.7

 TRANSPORT PROPERTIES (GASES ONLY)
   CONDUCTIVITY IN UNITS OF MILLIWATTS/(CM)(K)

 VISC,MILLIPOISE  0.77998  0.78086  0.78174  0.78262  0.78349  0.78437  0.78525  0.78612

  WITH EQUILIBRIUM REACTIONS

 Cp, KJ/(KG)(K)   22.8909  22.9007  22.9109  22.9214  22.9322  22.9434  22.9549  22.9668
 CONDUCTIVITY     25.6392  25.6597  25.6804  25.7012  25.7223  25.7436  25.7650  25.7867
 PRANDTL NUMBER    0.6964   0.6969   0.6974   0.6980   0.6985   0.6991   0.6996   0.7002

  WITH FROZEN REACTIONS

 Cp, KJ/(KG)(K)   20.6475  20.6478  20.6481  20.6484  20.6487  20.6490  20.6493  20.6497
 CONDUCTIVITY     24.2058  24.2351  24.2643  24.2936  24.3228  24.3520  24.3812  24.4104
 PRANDTL NUMBER    0.6653   0.6653   0.6652   0.6652   0.6651   0.6651   0.6651   0.6650

 MOLE FRACTIONS

 *e-              0.00064  0.00065  0.00066  0.00067  0.00068  0.00069  0.00070  0.00071
 *H               0.99697  0.99697  0.99696  0.99696  0.99696  0.99695  0.99695  0.99694
 *H+              0.00064  0.00065  0.00066  0.00067  0.00068  0.00069  0.00070  0.00071
 *H2              0.00176  0.00174  0.00172  0.00171  0.00169  0.00167  0.00166  0.00164

  * THERMODYNAMIC PROPERTIES FITTED TO 20000.K

 NOTE. WEIGHT FRACTION OF FUEL IN TOTAL FUELS AND OF OXIDANT IN TOTAL OXIDANTS









               THERMODYNAMIC EQUILIBRIUM PROPERTIES AT ASSIGNED

                           TEMPERATURE AND PRESSURE

 CASE =                

             REACTANT                    WT FRACTION      ENERGY      TEMP
                                          (SEE NOTE)     KJ/KG-MOL      K  
             H2                           1.0000000         0.000      0.000

 O/F=    0.00000  %FUEL=100.000000  R,EQ.RATIO= 0.000000  PHI,EQ.RATIO= 0.000000

 THERMODYNAMIC PROPERTIES

 P, BAR            3.1000   3.1000   3.1000   3.1000   3.1000   3.5000   3.5000   3.5000
 T, K             7600.00  7610.00  7620.00  7630.00  7640.00  7500.00  7510.00  7520.00
 RHO, KG/CU M    4.9492-3 4.9426-3 4.9360-3 4.9294-3 4.9228-3 5.6654-3 5.6577-3 5.6500-3
 H, KJ/KG        367163.3 367393.2 367623.1 367853.3 368083.5 364712.3 364941.3 365170.3
 U, KJ/KG        304527.5 304673.3 304819.2 304965.2 305111.4 302933.8 303078.6 303223.5
 G, KJ/KG       -934928.1-936641.5-938355.3-940069.3-941783.6-910312.0-912012.2-913712.7
 S, KJ/(KG)(K)   171.3278 171.3580 171.3882 171.4184 171.4486 170.0032 170.0337 170.0642

 M, (1/n)           1.009    1.009    1.009    1.009    1.009    1.009    1.009    1.009
 (dLV/dLP)t      -1.00198 -1.00197 -1.00196 -1.00195 -1.00194 -1.00230 -1.00229 -1.00227
 (dLV/dLT)p        1.0203   1.0203   1.0203   1.0203   1.0203   1.0218   1.0218   1.0217
 Cp, KJ/(KG)(K)   22.9790  22.9915  23.0044  23.0177  23.0312  22.8924  22.8991  22.9062
 GAMMAs            1.5908   1.5903   1.5898   1.5893   1.5888   1.5959   1.5956   1.5952
 SON VEL,M/SEC     9981.9   9987.1   9992.2   9997.4  10002.4   9929.3   9935.1   9940.7

 TRANSPORT PROPERTIES (GASES ONLY)
   CONDUCTIVITY IN UNITS OF MILLIWATTS/(CM)(K)

 VISC,MILLIPOISE  0.78699  0.78787  0.78874  0.78961  0.79048  0.77888  0.77977  0.78065

  WITH EQUILIBRIUM REACTIONS

 Cp, KJ/(KG)(K)   22.9790  22.9915  23.0044  23.0177  23.0312  22.8924  22.8991  22.9062
 CONDUCTIVITY     25.8085  25.8306  25.8528  25.8752  25.8978  25.7430  25.7612  25.7796
 PRANDTL NUMBER    0.7007   0.7013   0.7018   0.7024   0.7030   0.6926   0.6931   0.6936

  WITH FROZEN REACTIONS

 Cp, KJ/(KG)(K)   20.6500  20.6503  20.6506  20.6509  20.6512  20.6462  20.6465  20.6468
 CONDUCTIVITY     24.4395  24.4687  24.4978  24.5269  24.5560  24.1573  24.1866  24.2159
 PRANDTL NUMBER    0.6650   0.6649   0.6649   0.6648   0.6648   0.6657   0.6656   0.6656

 MOLE FRACTIONS

 *e-              0.00072  0.00073  0.00074  0.00075  0.00077  0.00058  0.00059  0.00060
 *H               0.99693  0.99693  0.99692  0.99691  0.99690  0.99682  0.99682  0.99682
 *H+              0.00072  0.00073  0.00074  0.00075  0.00076  0.00058  0.00059  0.00060
 *H2              0.00162  0.00161  0.00159  0.00158  0.00156  0.00202  0.00200  0.00198

  * THERMODYNAMIC PROPERTIES FITTED TO 20000.K

 NOTE. WEIGHT FRACTION OF FUEL IN TOTAL FUELS AND OF OXIDANT IN TOTAL OXIDANTS









               THERMODYNAMIC EQUILIBRIUM PROPERTIES AT ASSIGNED

                           TEMPERATURE AND PRESSURE

 CASE =                

             REACTANT                    WT FRACTION      ENERGY      TEMP
                                          (SEE NOTE)     KJ/KG-MOL      K  
             H2                           1.0000000         0.000      0.000

 O/F=    0.00000  %FUEL=100.000000  R,EQ.RATIO= 0.000000  PHI,EQ.RATIO= 0.000000

 THERMODYNAMIC PROPERTIES

 P, BAR            3.5000   3.5000   3.5000   3.5000   3.5000   3.5000   3.5000   3.5000
 T, K             7530.00  7540.00  7550.00  7560.00  7570.00  7580.00  7590.00  7600.00
 RHO, KG/CU M    5.6423-3 5.6347-3 5.6271-3 5.6195-3 5.6119-3 5.6043-3 5.5968-3 5.5893-3
 H, KJ/KG        365399.4 365628.6 365857.8 366087.1 366316.6 366546.1 366775.7 367005.4
 U, KJ/KG        303368.4 303513.4 303658.5 303803.7 303949.0 304094.3 304239.8 304385.3
 G, KJ/KG       -915413.5-917114.6-918816.0-920517.7-922219.7-923922.0-925624.6-927327.5
 S, KJ/(KG)(K)   170.0947 170.1251 170.1555 170.1858 170.2161 170.2464 170.2767 170.3070

 M, (1/n)           1.009    1.009    1.009    1.009    1.009    1.009    1.009    1.009
 (dLV/dLP)t      -1.00226 -1.00225 -1.00223 -1.00222 -1.00220 -1.00219 -1.00218 -1.00217
 (dLV/dLT)p        1.0216   1.0216   1.0215   1.0215   1.0214   1.0214   1.0213   1.0213
 Cp, KJ/(KG)(K)   22.9136  22.9213  22.9294  22.9379  22.9467  22.9559  22.9654  22.9752
 GAMMAs            1.5949   1.5945   1.5941   1.5937   1.5933   1.5929   1.5925   1.5921
 SON VEL,M/SEC     9946.4   9952.0   9957.5   9963.1   9968.6   9974.1   9979.5   9984.9

 TRANSPORT PROPERTIES (GASES ONLY)
   CONDUCTIVITY IN UNITS OF MILLIWATTS/(CM)(K)

 VISC,MILLIPOISE  0.78153  0.78241  0.78329  0.78417  0.78505  0.78593  0.78681  0.78768

  WITH EQUILIBRIUM REACTIONS

 Cp, KJ/(KG)(K)   22.9136  22.9213  22.9294  22.9379  22.9467  22.9559  22.9654  22.9752
 CONDUCTIVITY     25.7982  25.8171  25.8362  25.8555  25.8750  25.8948  25.9147  25.9349
 PRANDTL NUMBER    0.6941   0.6947   0.6952   0.6957   0.6962   0.6967   0.6973   0.6978

  WITH FROZEN REACTIONS

 Cp, KJ/(KG)(K)   20.6471  20.6474  20.6477  20.6480  20.6483  20.6486  20.6489  20.6491
 CONDUCTIVITY     24.2452  24.2745  24.3038  24.3330  24.3623  24.3915  24.4207  24.4499
 PRANDTL NUMBER    0.6655   0.6655   0.6655   0.6654   0.6654   0.6653   0.6653   0.6652

 MOLE FRACTIONS

 *e-              0.00061  0.00062  0.00063  0.00064  0.00065  0.00066  0.00067  0.00068
 *H               0.99682  0.99682  0.99682  0.99682  0.99682  0.99681  0.99681  0.99681
 *H+              0.00061  0.00062  0.00063  0.00064  0.00065  0.00066  0.00067  0.00068
 *H2              0.00196  0.00194  0.00192  0.00191  0.00189  0.00187  0.00185  0.00183

  * THERMODYNAMIC PROPERTIES FITTED TO 20000.K

 NOTE. WEIGHT FRACTION OF FUEL IN TOTAL FUELS AND OF OXIDANT IN TOTAL OXIDANTS









               THERMODYNAMIC EQUILIBRIUM PROPERTIES AT ASSIGNED

                           TEMPERATURE AND PRESSURE

 CASE =                

             REACTANT                    WT FRACTION      ENERGY      TEMP
                                          (SEE NOTE)     KJ/KG-MOL      K  
             H2                           1.0000000         0.000      0.000

 O/F=    0.00000  %FUEL=100.000000  R,EQ.RATIO= 0.000000  PHI,EQ.RATIO= 0.000000

 THERMODYNAMIC PROPERTIES

 P, BAR            3.5000   3.5000   3.5000   3.5000   3.9000   3.9000   3.9000   3.9000
 T, K             7610.00  7620.00  7630.00  7640.00  7500.00  7510.00  7520.00  7530.00
 RHO, KG/CU M    5.5818-3 5.5743-3 5.5668-3 5.5594-3 6.3145-3 6.3059-3 6.2973-3 6.2888-3
 H, KJ/KG        367235.2 367465.1 367695.1 367925.2 364562.1 364791.4 365020.7 365250.1
 U, KJ/KG        304531.0 304676.8 304822.6 304968.6 302799.7 302944.7 303089.8 303234.9
 G, KJ/KG       -929030.7-930734.3-932438.1-934142.2-903627.6-905318.6-907010.0-908701.7
 S, KJ/(KG)(K)   170.3372 170.3674 170.3975 170.4277 169.0920 169.1225 169.1530 169.1835

 M, (1/n)           1.009    1.009    1.009    1.009    1.010    1.010    1.010    1.010
 (dLV/dLP)t      -1.00215 -1.00214 -1.00213 -1.00212 -1.00252 -1.00250 -1.00248 -1.00246
 (dLV/dLT)p        1.0213   1.0212   1.0212   1.0212   1.0232   1.0231   1.0230   1.0229
 Cp, KJ/(KG)(K)   22.9854  22.9960  23.0069  23.0181  22.9254  22.9299  22.9347  22.9399
 GAMMAs            1.5917   1.5913   1.5908   1.5904   1.5962   1.5959   1.5956   1.5953
 SON VEL,M/SEC     9990.3   9995.6  10000.9  10006.2   9929.1   9935.0   9940.8   9946.6

 TRANSPORT PROPERTIES (GASES ONLY)
   CONDUCTIVITY IN UNITS OF MILLIWATTS/(CM)(K)

 VISC,MILLIPOISE  0.78856  0.78943  0.79031  0.79118  0.77950  0.78039  0.78127  0.78215

  WITH EQUILIBRIUM REACTIONS

 Cp, KJ/(KG)(K)   22.9854  22.9960  23.0069  23.0181  22.9254  22.9299  22.9347  22.9399
 CONDUCTIVITY     25.9552  25.9758  25.9966  26.0176  25.8887  25.9050  25.9216  25.9384
 PRANDTL NUMBER    0.6983   0.6989   0.6994   0.7000   0.6903   0.6908   0.6912   0.6917

  WITH FROZEN REACTIONS

 Cp, KJ/(KG)(K)   20.6494  20.6497  20.6500  20.6503  20.6457  20.6460  20.6462  20.6465
 CONDUCTIVITY     24.4791  24.5083  24.5375  24.5666  24.1667  24.1961  24.2254  24.2547
 PRANDTL NUMBER    0.6652   0.6651   0.6651   0.6651   0.6659   0.6659   0.6658   0.6658

 MOLE FRACTIONS

 *e-              0.00069  0.00070  0.00071  0.00072  0.00055  0.00056  0.00057  0.00058
 *H               0.99681  0.99680  0.99680  0.99679  0.99665  0.99665  0.99666  0.99666
 *H+              0.00069  0.00070  0.00071  0.00072  0.00055  0.00056  0.00057  0.00058
 *H2              0.00182  0.00180  0.00178  0.00176  0.00225  0.00223  0.00221  0.00219

  * THERMODYNAMIC PROPERTIES FITTED TO 20000.K

 NOTE. WEIGHT FRACTION OF FUEL IN TOTAL FUELS AND OF OXIDANT IN TOTAL OXIDANTS









               THERMODYNAMIC EQUILIBRIUM PROPERTIES AT ASSIGNED

                           TEMPERATURE AND PRESSURE

 CASE =                

             REACTANT                    WT FRACTION      ENERGY      TEMP
                                          (SEE NOTE)     KJ/KG-MOL      K  
             H2                           1.0000000         0.000      0.000

 O/F=    0.00000  %FUEL=100.000000  R,EQ.RATIO= 0.000000  PHI,EQ.RATIO= 0.000000

 THERMODYNAMIC PROPERTIES

 P, BAR            3.9000   3.9000   3.9000   3.9000   3.9000   3.9000   3.9000   3.9000
 T, K             7540.00  7550.00  7560.00  7570.00  7580.00  7590.00  7600.00  7610.00
 RHO, KG/CU M    6.2803-3 6.2717-3 6.2633-3 6.2548-3 6.2464-3 6.2380-3 6.2296-3 6.2212-3
 H, KJ/KG        365479.5 365709.0 365938.5 366168.1 366397.8 366627.5 366857.4 367087.3
 U, KJ/KG        303380.1 303525.4 303670.7 303816.0 303961.5 304107.0 304252.6 304398.3
 G, KJ/KG       -910393.7-912086.0-913778.6-915471.5-917164.7-918858.2-920552.0-922246.1
 S, KJ/(KG)(K)   169.2139 169.2444 169.2747 169.3051 169.3354 169.3657 169.3960 169.4262

 M, (1/n)           1.010    1.010    1.009    1.009    1.009    1.009    1.009    1.009
 (dLV/dLP)t      -1.00245 -1.00243 -1.00242 -1.00240 -1.00238 -1.00237 -1.00236 -1.00234
 (dLV/dLT)p        1.0228   1.0227   1.0227   1.0226   1.0225   1.0225   1.0224   1.0224
 Cp, KJ/(KG)(K)   22.9455  22.9514  22.9577  22.9643  22.9713  22.9787  22.9864  22.9944
 GAMMAs            1.5950   1.5947   1.5944   1.5941   1.5937   1.5934   1.5930   1.5926
 SON VEL,M/SEC     9952.4   9958.2   9963.9   9969.6   9975.2   9980.9   9986.4   9992.0

 TRANSPORT PROPERTIES (GASES ONLY)
   CONDUCTIVITY IN UNITS OF MILLIWATTS/(CM)(K)

 VISC,MILLIPOISE  0.78304  0.78392  0.78480  0.78568  0.78656  0.78744  0.78832  0.78920

  WITH EQUILIBRIUM REACTIONS

 Cp, KJ/(KG)(K)   22.9455  22.9514  22.9577  22.9643  22.9713  22.9787  22.9864  22.9944
 CONDUCTIVITY     25.9555  25.9728  25.9904  26.0082  26.0263  26.0446  26.0631  26.0818
 PRANDTL NUMBER    0.6922   0.6927   0.6932   0.6937   0.6942   0.6947   0.6953   0.6958

  WITH FROZEN REACTIONS

 Cp, KJ/(KG)(K)   20.6468  20.6471  20.6474  20.6476  20.6479  20.6482  20.6485  20.6487
 CONDUCTIVITY     24.2840  24.3133  24.3425  24.3718  24.4011  24.4303  24.4596  24.4888
 PRANDTL NUMBER    0.6658   0.6657   0.6657   0.6656   0.6656   0.6655   0.6655   0.6654

 MOLE FRACTIONS

 *e-              0.00059  0.00059  0.00060  0.00061  0.00062  0.00063  0.00064  0.00065
 *H               0.99666  0.99667  0.99667  0.99667  0.99667  0.99667  0.99667  0.99667
 *H+              0.00058  0.00059  0.00060  0.00061  0.00062  0.00063  0.00064  0.00065
 *H2              0.00216  0.00214  0.00212  0.00210  0.00208  0.00206  0.00204  0.00202

  * THERMODYNAMIC PROPERTIES FITTED TO 20000.K

 NOTE. WEIGHT FRACTION OF FUEL IN TOTAL FUELS AND OF OXIDANT IN TOTAL OXIDANTS









               THERMODYNAMIC EQUILIBRIUM PROPERTIES AT ASSIGNED

                           TEMPERATURE AND PRESSURE

 CASE =                

             REACTANT                    WT FRACTION      ENERGY      TEMP
                                          (SEE NOTE)     KJ/KG-MOL      K  
             H2                           1.0000000         0.000      0.000

 O/F=    0.00000  %FUEL=100.000000  R,EQ.RATIO= 0.000000  PHI,EQ.RATIO= 0.000000

 THERMODYNAMIC PROPERTIES

 P, BAR            3.9000   3.9000   3.9000   4.4000   4.4000   4.4000   4.4000   4.4000
 T, K             7620.00  7630.00  7640.00  7500.00  7510.00  7520.00  7530.00  7540.00
 RHO, KG/CU M    6.2128-3 6.2045-3 6.1962-3 7.1264-3 7.1166-3 7.1069-3 7.0973-3 7.0876-3
 H, KJ/KG        367317.3 367547.3 367777.5 364383.3 364613.1 364842.9 365072.8 365302.7
 U, KJ/KG        304544.1 304689.9 304835.9 302640.6 302786.1 302931.6 303077.1 303222.6
 G, KJ/KG       -923940.5-925635.2-927330.2-896178.5-897859.4-899540.6-901222.1-902903.9
 S, KJ/(KG)(K)   169.4564 169.4866 169.5167 168.0749 168.1055 168.1361 168.1667 168.1972

 M, (1/n)           1.009    1.009    1.009    1.010    1.010    1.010    1.010    1.010
 (dLV/dLP)t      -1.00233 -1.00231 -1.00230 -1.00278 -1.00276 -1.00274 -1.00272 -1.00270
 (dLV/dLT)p        1.0223   1.0223   1.0222   1.0249   1.0248   1.0247   1.0245   1.0244
 Cp, KJ/(KG)(K)   23.0028  23.0116  23.0207  22.9801  22.9820  22.9843  22.9870  22.9900
 GAMMAs            1.5922   1.5919   1.5915   1.5962   1.5960   1.5957   1.5955   1.5953
 SON VEL,M/SEC     9997.5  10003.0  10008.4   9927.4   9933.5   9939.6   9945.6   9951.6

 TRANSPORT PROPERTIES (GASES ONLY)
   CONDUCTIVITY IN UNITS OF MILLIWATTS/(CM)(K)

 VISC,MILLIPOISE  0.79007  0.79095  0.79182  0.78023  0.78111  0.78200  0.78288  0.78376

  WITH EQUILIBRIUM REACTIONS

 Cp, KJ/(KG)(K)   23.0028  23.0116  23.0207  22.9801  22.9820  22.9843  22.9870  22.9900
 CONDUCTIVITY     26.1008  26.1200  26.1394  26.0723  26.0863  26.1007  26.1153  26.1302
 PRANDTL NUMBER    0.6963   0.6968   0.6974   0.6877   0.6882   0.6886   0.6891   0.6896

  WITH FROZEN REACTIONS

 Cp, KJ/(KG)(K)   20.6490  20.6493  20.6496  20.6451  20.6454  20.6457  20.6459  20.6462
 CONDUCTIVITY     24.5180  24.5472  24.5764  24.1779  24.2072  24.2365  24.2658  24.2951
 PRANDTL NUMBER    0.6654   0.6654   0.6653   0.6662   0.6662   0.6661   0.6661   0.6660

 MOLE FRACTIONS

 *e-              0.00066  0.00067  0.00068  0.00052  0.00053  0.00053  0.00054  0.00055
 *H               0.99667  0.99667  0.99667  0.99642  0.99643  0.99644  0.99645  0.99645
 *H+              0.00066  0.00067  0.00068  0.00052  0.00053  0.00053  0.00054  0.00055
 *H2              0.00200  0.00198  0.00197  0.00254  0.00251  0.00249  0.00247  0.00244

  * THERMODYNAMIC PROPERTIES FITTED TO 20000.K

 NOTE. WEIGHT FRACTION OF FUEL IN TOTAL FUELS AND OF OXIDANT IN TOTAL OXIDANTS









               THERMODYNAMIC EQUILIBRIUM PROPERTIES AT ASSIGNED

                           TEMPERATURE AND PRESSURE

 CASE =                

             REACTANT                    WT FRACTION      ENERGY      TEMP
                                          (SEE NOTE)     KJ/KG-MOL      K  
             H2                           1.0000000         0.000      0.000

 O/F=    0.00000  %FUEL=100.000000  R,EQ.RATIO= 0.000000  PHI,EQ.RATIO= 0.000000

 THERMODYNAMIC PROPERTIES

 P, BAR            4.4000   4.4000   4.4000   4.4000   4.4000   4.4000   4.4000   4.4000
 T, K             7550.00  7560.00  7570.00  7580.00  7590.00  7600.00  7610.00  7620.00
 RHO, KG/CU M    7.0780-3 7.0684-3 7.0588-3 7.0493-3 7.0398-3 7.0303-3 7.0209-3 7.0114-3
 H, KJ/KG        365532.6 365762.6 365992.5 366222.6 366452.7 366682.8 366913.0 367143.2
 U, KJ/KG        303368.2 303513.8 303659.4 303805.1 303950.9 304096.7 304242.6 304388.5
 G, KJ/KG       -904586.0-906268.5-907951.2-909634.2-911317.6-913001.2-914685.2-916369.4
 S, KJ/(KG)(K)   168.2276 168.2581 168.2885 168.3188 168.3492 168.3795 168.4097 168.4400

 M, (1/n)           1.010    1.010    1.010    1.010    1.010    1.010    1.010    1.010
 (dLV/dLP)t      -1.00268 -1.00267 -1.00265 -1.00263 -1.00261 -1.00259 -1.00258 -1.00256
 (dLV/dLT)p        1.0243   1.0242   1.0241   1.0240   1.0240   1.0239   1.0238   1.0237
 Cp, KJ/(KG)(K)   22.9934  22.9972  23.0013  23.0058  23.0107  23.0159  23.0214  23.0274
 GAMMAs            1.5950   1.5947   1.5945   1.5942   1.5939   1.5936   1.5933   1.5930
 SON VEL,M/SEC     9957.5   9963.5   9969.4   9975.2   9981.0   9986.8   9992.6   9998.3

 TRANSPORT PROPERTIES (GASES ONLY)
   CONDUCTIVITY IN UNITS OF MILLIWATTS/(CM)(K)

 VISC,MILLIPOISE  0.78465  0.78553  0.78641  0.78729  0.78817  0.78905  0.78993  0.79081

  WITH EQUILIBRIUM REACTIONS

 Cp, KJ/(KG)(K)   22.9934  22.9972  23.0013  23.0058  23.0107  23.0159  23.0214  23.0274
 CONDUCTIVITY     26.1454  26.1608  26.1765  26.1925  26.2087  26.2252  26.2419  26.2589
 PRANDTL NUMBER    0.6901   0.6905   0.6910   0.6915   0.6920   0.6925   0.6930   0.6935

  WITH FROZEN REACTIONS

 Cp, KJ/(KG)(K)   20.6465  20.6467  20.6470  20.6473  20.6475  20.6478  20.6480  20.6483
 CONDUCTIVITY     24.3244  24.3537  24.3830  24.4122  24.4415  24.4708  24.5000  24.5293
 PRANDTL NUMBER    0.6660   0.6660   0.6659   0.6659   0.6658   0.6658   0.6657   0.6657

 MOLE FRACTIONS

 *e-              0.00056  0.00057  0.00058  0.00059  0.00059  0.00060  0.00061  0.00062
 *H               0.99646  0.99647  0.99647  0.99648  0.99648  0.99649  0.99649  0.99649
 *H+              0.00056  0.00057  0.00058  0.00059  0.00059  0.00060  0.00061  0.00062
 *H2              0.00242  0.00239  0.00237  0.00235  0.00233  0.00230  0.00228  0.00226

  * THERMODYNAMIC PROPERTIES FITTED TO 20000.K

 NOTE. WEIGHT FRACTION OF FUEL IN TOTAL FUELS AND OF OXIDANT IN TOTAL OXIDANTS









               THERMODYNAMIC EQUILIBRIUM PROPERTIES AT ASSIGNED

                           TEMPERATURE AND PRESSURE

 CASE =                

             REACTANT                    WT FRACTION      ENERGY      TEMP
                                          (SEE NOTE)     KJ/KG-MOL      K  
             H2                           1.0000000         0.000      0.000

 O/F=    0.00000  %FUEL=100.000000  R,EQ.RATIO= 0.000000  PHI,EQ.RATIO= 0.000000

 THERMODYNAMIC PROPERTIES

 P, BAR            4.4000   4.4000   4.9000   4.9000   4.9000   4.9000   4.9000   4.9000
 T, K             7630.00  7640.00  7500.00  7510.00  7520.00  7530.00  7540.00  7550.00
 RHO, KG/CU M    7.0020-3 6.9926-3 7.9387-3 7.9278-3 7.9170-3 7.9062-3 7.8954-3 7.8847-3
 H, KJ/KG        367373.5 367603.9 364212.1 364442.6 364673.0 364903.5 365134.0 365364.4
 U, KJ/KG        304534.5 304680.6 302488.8 302634.8 302780.8 302926.8 303072.8 303218.8
 G, KJ/KG       -918054.0-919738.8-889534.1-891205.9-892878.0-894550.5-896223.2-897896.2
 S, KJ/(KG)(K)   168.4702 168.5004 167.1662 167.1969 167.2275 167.2582 167.2887 167.3193

 M, (1/n)           1.010    1.010    1.010    1.010    1.010    1.010    1.010    1.010
 (dLV/dLP)t      -1.00254 -1.00253 -1.00305 -1.00303 -1.00301 -1.00298 -1.00296 -1.00294
 (dLV/dLT)p        1.0236   1.0236   1.0267   1.0265   1.0264   1.0262   1.0261   1.0260
 Cp, KJ/(KG)(K)   23.0337  23.0403  23.0461  23.0456  23.0455  23.0458  23.0464  23.0475
 GAMMAs            1.5926   1.5923   1.5958   1.5956   1.5955   1.5953   1.5951   1.5949
 SON VEL,M/SEC    10004.0  10009.6   9924.6   9930.9   9937.2   9943.4   9949.6   9955.7

 TRANSPORT PROPERTIES (GASES ONLY)
   CONDUCTIVITY IN UNITS OF MILLIWATTS/(CM)(K)

 VISC,MILLIPOISE  0.79169  0.79257  0.78091  0.78179  0.78268  0.78356  0.78445  0.78533

  WITH EQUILIBRIUM REACTIONS

 Cp, KJ/(KG)(K)   23.0337  23.0403  23.0461  23.0456  23.0455  23.0458  23.0464  23.0475
 CONDUCTIVITY     26.2761  26.2936  26.2570  26.2688  26.2810  26.2934  26.3061  26.3192
 PRANDTL NUMBER    0.6940   0.6945   0.6854   0.6859   0.6863   0.6868   0.6872   0.6877

  WITH FROZEN REACTIONS

 Cp, KJ/(KG)(K)   20.6486  20.6488  20.6447  20.6449  20.6452  20.6454  20.6457  20.6460
 CONDUCTIVITY     24.5585  24.5877  24.1885  24.2178  24.2471  24.2764  24.3057  24.3350
 PRANDTL NUMBER    0.6656   0.6656   0.6665   0.6665   0.6664   0.6664   0.6663   0.6663

 MOLE FRACTIONS

 *e-              0.00063  0.00064  0.00049  0.00050  0.00051  0.00051  0.00052  0.00053
 *H               0.99649  0.99650  0.99619  0.99620  0.99621  0.99623  0.99624  0.99625
 *H+              0.00063  0.00064  0.00049  0.00050  0.00051  0.00051  0.00052  0.00053
 *H2              0.00224  0.00222  0.00283  0.00280  0.00277  0.00274  0.00272  0.00269

  * THERMODYNAMIC PROPERTIES FITTED TO 20000.K

 NOTE. WEIGHT FRACTION OF FUEL IN TOTAL FUELS AND OF OXIDANT IN TOTAL OXIDANTS









               THERMODYNAMIC EQUILIBRIUM PROPERTIES AT ASSIGNED

                           TEMPERATURE AND PRESSURE

 CASE =                

             REACTANT                    WT FRACTION      ENERGY      TEMP
                                          (SEE NOTE)     KJ/KG-MOL      K  
             H2                           1.0000000         0.000      0.000

 O/F=    0.00000  %FUEL=100.000000  R,EQ.RATIO= 0.000000  PHI,EQ.RATIO= 0.000000

 THERMODYNAMIC PROPERTIES

 P, BAR            4.9000   4.9000   4.9000   4.9000   4.9000   4.9000   4.9000   4.9000
 T, K             7560.00  7570.00  7580.00  7590.00  7600.00  7610.00  7620.00  7630.00
 RHO, KG/CU M    7.8740-3 7.8633-3 7.8527-3 7.8421-3 7.8315-3 7.8210-3 7.8104-3 7.7999-3
 H, KJ/KG        365594.9 365825.4 366055.9 366286.5 366517.0 366747.6 366978.3 367208.9
 U, KJ/KG        303364.8 303510.9 303657.0 303803.1 303949.2 304095.4 304241.6 304387.9
 G, KJ/KG       -899569.6-901243.2-902917.2-904591.4-906266.0-907940.9-909616.0-911291.5
 S, KJ/(KG)(K)   167.3498 167.3803 167.4107 167.4411 167.4715 167.5018 167.5321 167.5623

 M, (1/n)           1.010    1.010    1.010    1.010    1.010    1.010    1.010    1.010
 (dLV/dLP)t      -1.00292 -1.00290 -1.00288 -1.00286 -1.00284 -1.00282 -1.00280 -1.00278
 (dLV/dLT)p        1.0259   1.0257   1.0256   1.0255   1.0254   1.0253   1.0252   1.0251
 Cp, KJ/(KG)(K)   23.0489  23.0507  23.0529  23.0554  23.0583  23.0616  23.0652  23.0693
 GAMMAs            1.5947   1.5945   1.5943   1.5940   1.5938   1.5935   1.5933   1.5930
 SON VEL,M/SEC     9961.8   9967.9   9974.0   9980.0   9985.9   9991.9   9997.8  10003.7

 TRANSPORT PROPERTIES (GASES ONLY)
   CONDUCTIVITY IN UNITS OF MILLIWATTS/(CM)(K)

 VISC,MILLIPOISE  0.78621  0.78710  0.78798  0.78886  0.78974  0.79062  0.79150  0.79238

  WITH EQUILIBRIUM REACTIONS

 Cp, KJ/(KG)(K)   23.0489  23.0507  23.0529  23.0554  23.0583  23.0616  23.0652  23.0693
 CONDUCTIVITY     26.3325  26.3461  26.3601  26.3743  26.3887  26.4035  26.4185  26.4338
 PRANDTL NUMBER    0.6882   0.6886   0.6891   0.6896   0.6901   0.6906   0.6910   0.6915

  WITH FROZEN REACTIONS

 Cp, KJ/(KG)(K)   20.6462  20.6465  20.6467  20.6470  20.6472  20.6475  20.6477  20.6479
 CONDUCTIVITY     24.3642  24.3935  24.4228  24.4521  24.4813  24.5106  24.5398  24.5691
 PRANDTL NUMBER    0.6662   0.6662   0.6661   0.6661   0.6661   0.6660   0.6660   0.6659

 MOLE FRACTIONS

 *e-              0.00054  0.00055  0.00056  0.00056  0.00057  0.00058  0.00059  0.00060
 *H               0.99626  0.99626  0.99627  0.99628  0.99629  0.99630  0.99630  0.99631
 *H+              0.00054  0.00055  0.00055  0.00056  0.00057  0.00058  0.00059  0.00060
 *H2              0.00267  0.00264  0.00261  0.00259  0.00256  0.00254  0.00251  0.00249

  * THERMODYNAMIC PROPERTIES FITTED TO 20000.K

 NOTE. WEIGHT FRACTION OF FUEL IN TOTAL FUELS AND OF OXIDANT IN TOTAL OXIDANTS









               THERMODYNAMIC EQUILIBRIUM PROPERTIES AT ASSIGNED

                           TEMPERATURE AND PRESSURE

 CASE =                

             REACTANT                    WT FRACTION      ENERGY      TEMP
                                          (SEE NOTE)     KJ/KG-MOL      K  
             H2                           1.0000000         0.000      0.000

 O/F=    0.00000  %FUEL=100.000000  R,EQ.RATIO= 0.000000  PHI,EQ.RATIO= 0.000000

 THERMODYNAMIC PROPERTIES

 P, BAR            4.9000   5.4000   5.4000   5.4000   5.4000   5.4000   5.4000   5.4000
 T, K             7640.00  7500.00  7510.00  7520.00  7530.00  7540.00  7550.00  7560.00
 RHO, KG/CU M    7.7895-3 8.7514-3 8.7394-3 8.7275-3 8.7156-3 8.7037-3 8.6919-3 8.6800-3
 H, KJ/KG        367439.7 364046.8 364278.0 364509.2 364740.3 364971.4 365202.6 365433.7
 U, KJ/KG        304534.2 302342.6 302489.2 302635.8 302782.3 302928.9 303075.4 303222.0
 G, KJ/KG       -912967.3-883537.7-885201.3-886865.2-888529.5-890194.0-891858.8-893523.9
 S, KJ/(KG)(K)   167.5925 166.3446 166.3754 166.4062 166.4369 166.4676 166.4982 166.5288

 M, (1/n)           1.010    1.011    1.011    1.011    1.010    1.010    1.010    1.010
 (dLV/dLP)t      -1.00276 -1.00332 -1.00330 -1.00327 -1.00325 -1.00322 -1.00320 -1.00317
 (dLV/dLT)p        1.0250   1.0285   1.0283   1.0282   1.0280   1.0278   1.0277   1.0275
 Cp, KJ/(KG)(K)   23.0736  23.1205  23.1178  23.1154  23.1134  23.1118  23.1107  23.1099
 GAMMAs            1.5927   1.5951   1.5950   1.5949   1.5948   1.5946   1.5945   1.5943
 SON VEL,M/SEC    10009.5   9921.0   9927.4   9933.9   9940.3   9946.6   9953.0   9959.3

 TRANSPORT PROPERTIES (GASES ONLY)
   CONDUCTIVITY IN UNITS OF MILLIWATTS/(CM)(K)

 VISC,MILLIPOISE  0.79326  0.78156  0.78244  0.78333  0.78421  0.78509  0.78598  0.78686

  WITH EQUILIBRIUM REACTIONS

 Cp, KJ/(KG)(K)   23.0736  23.1205  23.1178  23.1154  23.1134  23.1118  23.1107  23.1099
 CONDUCTIVITY     26.4493  26.4425  26.4521  26.4621  26.4724  26.4830  26.4939  26.5052
 PRANDTL NUMBER    0.6920   0.6834   0.6838   0.6843   0.6847   0.6852   0.6856   0.6861

  WITH FROZEN REACTIONS

 Cp, KJ/(KG)(K)   20.6482  20.6443  20.6446  20.6448  20.6450  20.6453  20.6455  20.6458
 CONDUCTIVITY     24.5983  24.1987  24.2280  24.2572  24.2865  24.3158  24.3451  24.3743
 PRANDTL NUMBER    0.6659   0.6668   0.6667   0.6667   0.6666   0.6666   0.6665   0.6665

 MOLE FRACTIONS

 *e-              0.00061  0.00047  0.00047  0.00048  0.00049  0.00050  0.00050  0.00051
 *H               0.99631  0.99595  0.99597  0.99598  0.99600  0.99601  0.99602  0.99604
 *H+              0.00061  0.00047  0.00047  0.00048  0.00049  0.00050  0.00050  0.00051
 *H2              0.00247  0.00311  0.00308  0.00305  0.00302  0.00299  0.00296  0.00294

  * THERMODYNAMIC PROPERTIES FITTED TO 20000.K

 NOTE. WEIGHT FRACTION OF FUEL IN TOTAL FUELS AND OF OXIDANT IN TOTAL OXIDANTS









               THERMODYNAMIC EQUILIBRIUM PROPERTIES AT ASSIGNED

                           TEMPERATURE AND PRESSURE

 CASE =                

             REACTANT                    WT FRACTION      ENERGY      TEMP
                                          (SEE NOTE)     KJ/KG-MOL      K  
             H2                           1.0000000         0.000      0.000

 O/F=    0.00000  %FUEL=100.000000  R,EQ.RATIO= 0.000000  PHI,EQ.RATIO= 0.000000

 THERMODYNAMIC PROPERTIES

 P, BAR            5.4000   5.4000   5.4000   5.4000   5.4000   5.4000   5.4000   5.4000
 T, K             7570.00  7580.00  7590.00  7600.00  7610.00  7620.00  7630.00  7640.00
 RHO, KG/CU M    8.6683-3 8.6565-3 8.6448-3 8.6331-3 8.6215-3 8.6098-3 8.5983-3 8.5867-3
 H, KJ/KG        365664.8 365895.9 366126.9 366358.0 366589.2 366820.3 367051.4 367282.6
 U, KJ/KG        303368.5 303515.1 303661.6 303808.2 303954.8 304101.4 304248.0 304394.7
 G, KJ/KG       -895189.4-896855.1-898521.2-900187.5-901854.2-903521.2-905188.4-906856.0
 S, KJ/(KG)(K)   166.5593 166.5898 166.6203 166.6507 166.6811 166.7115 166.7418 166.7721

 M, (1/n)           1.010    1.010    1.010    1.010    1.010    1.010    1.010    1.010
 (dLV/dLP)t      -1.00315 -1.00312 -1.00310 -1.00308 -1.00306 -1.00303 -1.00301 -1.00299
 (dLV/dLT)p        1.0274   1.0272   1.0271   1.0270   1.0268   1.0267   1.0266   1.0265
 Cp, KJ/(KG)(K)   23.1095  23.1095  23.1098  23.1106  23.1117  23.1132  23.1151  23.1173
 GAMMAs            1.5942   1.5940   1.5938   1.5936   1.5934   1.5932   1.5930   1.5928
 SON VEL,M/SEC     9965.5   9971.7   9977.9   9984.1   9990.2   9996.3  10002.3  10008.3

 TRANSPORT PROPERTIES (GASES ONLY)
   CONDUCTIVITY IN UNITS OF MILLIWATTS/(CM)(K)

 VISC,MILLIPOISE  0.78774  0.78863  0.78951  0.79039  0.79127  0.79215  0.79303  0.79391

  WITH EQUILIBRIUM REACTIONS

 Cp, KJ/(KG)(K)   23.1095  23.1095  23.1098  23.1106  23.1117  23.1132  23.1151  23.1173
 CONDUCTIVITY     26.5167  26.5286  26.5408  26.5533  26.5661  26.5792  26.5926  26.6062
 PRANDTL NUMBER    0.6865   0.6870   0.6874   0.6879   0.6884   0.6889   0.6893   0.6898

  WITH FROZEN REACTIONS

 Cp, KJ/(KG)(K)   20.6460  20.6462  20.6465  20.6467  20.6470  20.6472  20.6474  20.6477
 CONDUCTIVITY     24.4036  24.4329  24.4621  24.4914  24.5206  24.5499  24.5791  24.6084
 PRANDTL NUMBER    0.6664   0.6664   0.6664   0.6663   0.6663   0.6662   0.6662   0.6661

 MOLE FRACTIONS

 *e-              0.00052  0.00053  0.00054  0.00055  0.00055  0.00056  0.00057  0.00058
 *H               0.99605  0.99606  0.99607  0.99608  0.99609  0.99610  0.99611  0.99612
 *H+              0.00052  0.00053  0.00054  0.00055  0.00055  0.00056  0.00057  0.00058
 *H2              0.00291  0.00288  0.00285  0.00282  0.00280  0.00277  0.00274  0.00272

  * THERMODYNAMIC PROPERTIES FITTED TO 20000.K

 NOTE. WEIGHT FRACTION OF FUEL IN TOTAL FUELS AND OF OXIDANT IN TOTAL OXIDANTS









               THERMODYNAMIC EQUILIBRIUM PROPERTIES AT ASSIGNED

                           TEMPERATURE AND PRESSURE

 CASE =                

             REACTANT                    WT FRACTION      ENERGY      TEMP
                                          (SEE NOTE)     KJ/KG-MOL      K  
             H2                           1.0000000         0.000      0.000

 O/F=    0.00000  %FUEL=100.000000  R,EQ.RATIO= 0.000000  PHI,EQ.RATIO= 0.000000

 THERMODYNAMIC PROPERTIES

 P, BAR            6.0000   6.0000   6.0000   6.0000   6.0000   6.0000   6.0000   6.0000
 T, K             7500.00  7510.00  7520.00  7530.00  7540.00  7550.00  7560.00  7570.00
 RHO, KG/CU M    9.7274-3 9.7140-3 9.7007-3 9.6875-3 9.6742-3 9.6610-3 9.6479-3 9.6347-3
 H, KJ/KG        363854.5 364086.6 364318.7 364550.8 364782.8 365014.8 365246.7 365478.6
 U, KJ/KG        302172.9 302320.3 302467.7 302615.0 302762.3 302909.6 303056.8 303204.0
 G, KJ/KG       -877037.7-878692.4-880347.4-882002.7-883658.3-885314.2-886970.4-888626.9
 S, KJ/(KG)(K)   165.4523 165.4832 165.5141 165.5450 165.5757 165.6065 165.6372 165.6678

 M, (1/n)           1.011    1.011    1.011    1.011    1.011    1.011    1.011    1.011
 (dLV/dLP)t      -1.00365 -1.00362 -1.00359 -1.00356 -1.00353 -1.00350 -1.00348 -1.00345
 (dLV/dLT)p        1.0307   1.0305   1.0303   1.0301   1.0299   1.0298   1.0296   1.0294
 Cp, KJ/(KG)(K)   23.2184  23.2130  23.2080  23.2035  23.1994  23.1957  23.1924  23.1895
 GAMMAs            1.5940   1.5940   1.5939   1.5939   1.5938   1.5937   1.5936   1.5935
 SON VEL,M/SEC     9915.8   9922.5   9929.1   9935.7   9942.3   9948.8   9955.3   9961.7

 TRANSPORT PROPERTIES (GASES ONLY)
   CONDUCTIVITY IN UNITS OF MILLIWATTS/(CM)(K)

 VISC,MILLIPOISE  0.78230  0.78319  0.78407  0.78495  0.78584  0.78672  0.78760  0.78848

  WITH EQUILIBRIUM REACTIONS

 Cp, KJ/(KG)(K)   23.2184  23.2130  23.2080  23.2035  23.1994  23.1957  23.1924  23.1895
 CONDUCTIVITY     26.6657  26.6727  26.6801  26.6878  26.6959  26.7043  26.7131  26.7223
 PRANDTL NUMBER    0.6812   0.6816   0.6820   0.6825   0.6829   0.6834   0.6838   0.6842

  WITH FROZEN REACTIONS

 Cp, KJ/(KG)(K)   20.6439  20.6442  20.6444  20.6446  20.6449  20.6451  20.6453  20.6456
 CONDUCTIVITY     24.2105  24.2398  24.2690  24.2983  24.3275  24.3567  24.3860  24.4152
 PRANDTL NUMBER    0.6671   0.6670   0.6670   0.6669   0.6669   0.6668   0.6668   0.6667

 MOLE FRACTIONS

 *e-              0.00044  0.00045  0.00046  0.00046  0.00047  0.00048  0.00049  0.00049
 *H               0.99565  0.99567  0.99569  0.99571  0.99573  0.99575  0.99576  0.99578
 *H+              0.00044  0.00045  0.00046  0.00046  0.00047  0.00048  0.00049  0.00049
 *H2              0.00346  0.00342  0.00339  0.00336  0.00332  0.00329  0.00326  0.00323

  * THERMODYNAMIC PROPERTIES FITTED TO 20000.K

 NOTE. WEIGHT FRACTION OF FUEL IN TOTAL FUELS AND OF OXIDANT IN TOTAL OXIDANTS









               THERMODYNAMIC EQUILIBRIUM PROPERTIES AT ASSIGNED

                           TEMPERATURE AND PRESSURE

 CASE =                

             REACTANT                    WT FRACTION      ENERGY      TEMP
                                          (SEE NOTE)     KJ/KG-MOL      K  
             H2                           1.0000000         0.000      0.000

 O/F=    0.00000  %FUEL=100.000000  R,EQ.RATIO= 0.000000  PHI,EQ.RATIO= 0.000000

 THERMODYNAMIC PROPERTIES

 P, BAR            6.0000   6.0000   6.0000   6.0000   6.0000   6.0000   6.0000   6.7000
 T, K             7580.00  7590.00  7600.00  7610.00  7620.00  7630.00  7640.00  7500.00
 RHO, KG/CU M    9.6217-3 9.6086-3 9.5956-3 9.5826-3 9.5697-3 9.5568-3 9.5439-3 1.0867-2
 H, KJ/KG        365710.5 365942.4 366174.2 366406.0 366637.9 366869.7 367101.5 363636.6
 U, KJ/KG        303351.2 303498.4 303645.6 303792.8 303940.0 304087.1 304234.3 301981.1
 G, KJ/KG       -890283.8-891940.9-893598.4-895256.1-896914.2-898572.5-900231.2-870232.7
 S, KJ/(KG)(K)   165.6985 165.7290 165.7595 165.7900 165.8205 165.8509 165.8812 164.5159

 M, (1/n)           1.011    1.011    1.011    1.011    1.011    1.010    1.010    1.011
 (dLV/dLP)t      -1.00342 -1.00340 -1.00337 -1.00335 -1.00332 -1.00330 -1.00327 -1.00403
 (dLV/dLT)p        1.0292   1.0290   1.0289   1.0287   1.0286   1.0284   1.0283   1.0334
 Cp, KJ/(KG)(K)   23.1870  23.1849  23.1832  23.1819  23.1809  23.1804  23.1803  23.3414
 GAMMAs            1.5934   1.5933   1.5932   1.5930   1.5929   1.5927   1.5925   1.5925
 SON VEL,M/SEC     9968.2   9974.5   9980.9   9987.2   9993.4   9999.7  10005.9   9908.9

 TRANSPORT PROPERTIES (GASES ONLY)
   CONDUCTIVITY IN UNITS OF MILLIWATTS/(CM)(K)

 VISC,MILLIPOISE  0.78936  0.79025  0.79113  0.79201  0.79289  0.79377  0.79465  0.78314

  WITH EQUILIBRIUM REACTIONS

 Cp, KJ/(KG)(K)   23.1870  23.1849  23.1832  23.1819  23.1809  23.1804  23.1803  23.3414
 CONDUCTIVITY     26.7318  26.7416  26.7517  26.7622  26.7730  26.7841  26.7955  26.9266
 PRANDTL NUMBER    0.6847   0.6851   0.6856   0.6860   0.6865   0.6870   0.6874   0.6789

  WITH FROZEN REACTIONS

 Cp, KJ/(KG)(K)   20.6458  20.6460  20.6462  20.6465  20.6467  20.6469  20.6471  20.6436
 CONDUCTIVITY     24.4445  24.4737  24.5029  24.5322  24.5614  24.5906  24.6199  24.2240
 PRANDTL NUMBER    0.6667   0.6667   0.6666   0.6666   0.6665   0.6665   0.6664   0.6674

 MOLE FRACTIONS

 *e-              0.00050  0.00051  0.00052  0.00053  0.00053  0.00054  0.00055  0.00042
 *H               0.99580  0.99581  0.99583  0.99584  0.99585  0.99587  0.99588  0.99530
 *H+              0.00050  0.00051  0.00052  0.00052  0.00053  0.00054  0.00055  0.00042
 *H2              0.00320  0.00317  0.00314  0.00311  0.00308  0.00305  0.00302  0.00386

  * THERMODYNAMIC PROPERTIES FITTED TO 20000.K

 NOTE. WEIGHT FRACTION OF FUEL IN TOTAL FUELS AND OF OXIDANT IN TOTAL OXIDANTS









               THERMODYNAMIC EQUILIBRIUM PROPERTIES AT ASSIGNED

                           TEMPERATURE AND PRESSURE

 CASE =                

             REACTANT                    WT FRACTION      ENERGY      TEMP
                                          (SEE NOTE)     KJ/KG-MOL      K  
             H2                           1.0000000         0.000      0.000

 O/F=    0.00000  %FUEL=100.000000  R,EQ.RATIO= 0.000000  PHI,EQ.RATIO= 0.000000

 THERMODYNAMIC PROPERTIES

 P, BAR            6.7000   6.7000   6.7000   6.7000   6.7000   6.7000   6.7000   6.7000
 T, K             7510.00  7520.00  7530.00  7540.00  7550.00  7560.00  7570.00  7580.00
 RHO, KG/CU M    1.0852-2 1.0837-2 1.0822-2 1.0807-2 1.0793-2 1.0778-2 1.0763-2 1.0748-2
 H, KJ/KG        363870.0 364103.2 364336.5 364569.6 364802.7 365035.7 365268.7 365501.6
 U, KJ/KG        302129.6 302277.9 302426.2 302574.5 302722.7 302870.8 303018.9 303167.0
 G, KJ/KG       -871878.0-873523.6-875169.6-876815.8-878462.4-880109.2-881756.4-883403.9
 S, KJ/(KG)(K)   164.5470 164.5780 164.6090 164.6400 164.6709 164.7017 164.7325 164.7633

 M, (1/n)           1.011    1.011    1.011    1.011    1.011    1.011    1.011    1.011
 (dLV/dLP)t      -1.00400 -1.00396 -1.00393 -1.00390 -1.00387 -1.00383 -1.00380 -1.00377
 (dLV/dLT)p        1.0331   1.0329   1.0327   1.0324   1.0322   1.0320   1.0318   1.0316
 Cp, KJ/(KG)(K)   23.3331  23.3253  23.3179  23.3109  23.3044  23.2984  23.2927  23.2875
 GAMMAs            1.5925   1.5925   1.5925   1.5925   1.5925   1.5925   1.5924   1.5924
 SON VEL,M/SEC     9915.8   9922.7   9929.5   9936.3   9943.0   9949.7   9956.4   9963.0

 TRANSPORT PROPERTIES (GASES ONLY)
   CONDUCTIVITY IN UNITS OF MILLIWATTS/(CM)(K)

 VISC,MILLIPOISE  0.78402  0.78490  0.78578  0.78666  0.78755  0.78843  0.78931  0.79019

  WITH EQUILIBRIUM REACTIONS

 Cp, KJ/(KG)(K)   23.3331  23.3253  23.3179  23.3109  23.3044  23.2984  23.2927  23.2875
 CONDUCTIVITY     26.9306  26.9350  26.9398  26.9449  26.9505  26.9564  26.9628  26.9695
 PRANDTL NUMBER    0.6793   0.6797   0.6801   0.6806   0.6810   0.6814   0.6819   0.6823

  WITH FROZEN REACTIONS

 Cp, KJ/(KG)(K)   20.6438  20.6440  20.6443  20.6445  20.6447  20.6449  20.6451  20.6454
 CONDUCTIVITY     24.2531  24.2823  24.3115  24.3407  24.3699  24.3991  24.4283  24.4575
 PRANDTL NUMBER    0.6673   0.6673   0.6673   0.6672   0.6672   0.6671   0.6671   0.6670

 MOLE FRACTIONS

 *e-              0.00043  0.00043  0.00044  0.00045  0.00045  0.00046  0.00047  0.00047
 *H               0.99533  0.99535  0.99537  0.99540  0.99542  0.99544  0.99546  0.99548
 *H+              0.00043  0.00043  0.00044  0.00045  0.00045  0.00046  0.00047  0.00047
 *H2              0.00382  0.00378  0.00375  0.00371  0.00367  0.00364  0.00360  0.00357

  * THERMODYNAMIC PROPERTIES FITTED TO 20000.K

 NOTE. WEIGHT FRACTION OF FUEL IN TOTAL FUELS AND OF OXIDANT IN TOTAL OXIDANTS









               THERMODYNAMIC EQUILIBRIUM PROPERTIES AT ASSIGNED

                           TEMPERATURE AND PRESSURE

 CASE =                

             REACTANT                    WT FRACTION      ENERGY      TEMP
                                          (SEE NOTE)     KJ/KG-MOL      K  
             H2                           1.0000000         0.000      0.000

 O/F=    0.00000  %FUEL=100.000000  R,EQ.RATIO= 0.000000  PHI,EQ.RATIO= 0.000000

 THERMODYNAMIC PROPERTIES

 P, BAR            6.7000   6.7000   6.7000   6.7000   6.7000   6.7000   7.4000   7.4000
 T, K             7590.00  7600.00  7610.00  7620.00  7630.00  7640.00  7500.00  7510.00
 RHO, KG/CU M    1.0734-2 1.0719-2 1.0705-2 1.0690-2 1.0676-2 1.0661-2 1.2007-2 1.1991-2
 H, KJ/KG        365734.4 365967.2 366200.0 366432.7 366665.4 366898.0 363424.2 363658.8
 U, KJ/KG        303315.0 303463.0 303611.0 303758.9 303906.8 304054.7 301794.6 301944.1
 G, KJ/KG       -885051.7-886699.8-888348.2-889996.9-891645.9-893295.2-864107.1-865744.0
 S, KJ/(KG)(K)   164.7940 164.8246 164.8552 164.8858 164.9163 164.9468 163.6708 163.7021

 M, (1/n)           1.011    1.011    1.011    1.011    1.011    1.011    1.012    1.012
 (dLV/dLP)t      -1.00374 -1.00371 -1.00369 -1.00366 -1.00363 -1.00360 -1.00441 -1.00437
 (dLV/dLT)p        1.0314   1.0312   1.0310   1.0308   1.0306   1.0304   1.0360   1.0358
 Cp, KJ/(KG)(K)   23.2826  23.2782  23.2742  23.2707  23.2675  23.2647  23.4715  23.4605
 GAMMAs            1.5923   1.5923   1.5922   1.5921   1.5920   1.5919   1.5908   1.5908
 SON VEL,M/SEC     9969.6   9976.1   9982.6   9989.1   9995.6  10002.0   9901.4   9908.5

 TRANSPORT PROPERTIES (GASES ONLY)
   CONDUCTIVITY IN UNITS OF MILLIWATTS/(CM)(K)

 VISC,MILLIPOISE  0.79107  0.79195  0.79283  0.79371  0.79458  0.79546  0.78394  0.78482

  WITH EQUILIBRIUM REACTIONS

 Cp, KJ/(KG)(K)   23.2826  23.2782  23.2742  23.2707  23.2675  23.2647  23.4715  23.4605
 CONDUCTIVITY     26.9766  26.9840  26.9918  27.0000  27.0085  27.0173  27.1877  27.1886
 PRANDTL NUMBER    0.6827   0.6832   0.6836   0.6841   0.6845   0.6850   0.6768   0.6772

  WITH FROZEN REACTIONS

 Cp, KJ/(KG)(K)   20.6456  20.6458  20.6460  20.6462  20.6464  20.6466  20.6433  20.6435
 CONDUCTIVITY     24.4867  24.5159  24.5451  24.5743  24.6035  24.6327  24.2370  24.2661
 PRANDTL NUMBER    0.6670   0.6669   0.6669   0.6668   0.6668   0.6667   0.6677   0.6677

 MOLE FRACTIONS

 *e-              0.00048  0.00049  0.00050  0.00050  0.00051  0.00052  0.00040  0.00041
 *H               0.99550  0.99552  0.99554  0.99555  0.99557  0.99559  0.99494  0.99497
 *H+              0.00048  0.00049  0.00050  0.00050  0.00051  0.00052  0.00040  0.00040
 *H2              0.00353  0.00350  0.00347  0.00343  0.00340  0.00337  0.00426  0.00422

  * THERMODYNAMIC PROPERTIES FITTED TO 20000.K

 NOTE. WEIGHT FRACTION OF FUEL IN TOTAL FUELS AND OF OXIDANT IN TOTAL OXIDANTS









               THERMODYNAMIC EQUILIBRIUM PROPERTIES AT ASSIGNED

                           TEMPERATURE AND PRESSURE

 CASE =                

             REACTANT                    WT FRACTION      ENERGY      TEMP
                                          (SEE NOTE)     KJ/KG-MOL      K  
             H2                           1.0000000         0.000      0.000

 O/F=    0.00000  %FUEL=100.000000  R,EQ.RATIO= 0.000000  PHI,EQ.RATIO= 0.000000

 THERMODYNAMIC PROPERTIES

 P, BAR            7.4000   7.4000   7.4000   7.4000   7.4000   7.4000   7.4000   7.4000
 T, K             7520.00  7530.00  7540.00  7550.00  7560.00  7570.00  7580.00  7590.00
 RHO, KG/CU M    1.1974-2 1.1958-2 1.1941-2 1.1925-2 1.1909-2 1.1892-2 1.1876-2 1.1860-2
 H, KJ/KG        363893.4 364127.8 364362.2 364596.4 364830.6 365064.7 365298.7 365532.6
 U, KJ/KG        302093.5 302242.9 302392.2 302541.4 302690.5 302839.6 302988.6 303137.5
 G, KJ/KG       -867381.2-869018.6-870656.4-872294.6-873933.0-875571.7-877210.8-878850.1
 S, KJ/(KG)(K)   163.7333 163.7645 163.7956 163.8266 163.8576 163.8886 163.9195 163.9503

 M, (1/n)           1.012    1.012    1.012    1.012    1.012    1.012    1.011    1.011
 (dLV/dLP)t      -1.00434 -1.00430 -1.00426 -1.00423 -1.00419 -1.00416 -1.00412 -1.00409
 (dLV/dLT)p        1.0355   1.0352   1.0350   1.0347   1.0345   1.0342   1.0340   1.0337
 Cp, KJ/(KG)(K)   23.4499  23.4398  23.4302  23.4210  23.4122  23.4040  23.3961  23.3887
 GAMMAs            1.5909   1.5910   1.5910   1.5911   1.5911   1.5911   1.5911   1.5911
 SON VEL,M/SEC     9915.6   9922.6   9929.6   9936.5   9943.4   9950.2   9957.1   9963.8

 TRANSPORT PROPERTIES (GASES ONLY)
   CONDUCTIVITY IN UNITS OF MILLIWATTS/(CM)(K)

 VISC,MILLIPOISE  0.78570  0.78658  0.78746  0.78834  0.78922  0.79010  0.79098  0.79185

  WITH EQUILIBRIUM REACTIONS

 Cp, KJ/(KG)(K)   23.4499  23.4398  23.4302  23.4210  23.4122  23.4040  23.3961  23.3887
 CONDUCTIVITY     27.1901  27.1919  27.1942  27.1969  27.2001  27.2037  27.2076  27.2120
 PRANDTL NUMBER    0.6776   0.6780   0.6785   0.6789   0.6793   0.6797   0.6802   0.6806

  WITH FROZEN REACTIONS

 Cp, KJ/(KG)(K)   20.6438  20.6440  20.6442  20.6444  20.6446  20.6448  20.6450  20.6452
 CONDUCTIVITY     24.2953  24.3244  24.3535  24.3827  24.4118  24.4410  24.4701  24.4993
 PRANDTL NUMBER    0.6676   0.6676   0.6675   0.6675   0.6674   0.6674   0.6673   0.6673

 MOLE FRACTIONS

 *e-              0.00041  0.00042  0.00042  0.00043  0.00044  0.00044  0.00045  0.00046
 *H               0.99500  0.99503  0.99505  0.99508  0.99511  0.99513  0.99516  0.99518
 *H+              0.00041  0.00042  0.00042  0.00043  0.00044  0.00044  0.00045  0.00046
 *H2              0.00418  0.00413  0.00409  0.00405  0.00402  0.00398  0.00394  0.00390

  * THERMODYNAMIC PROPERTIES FITTED TO 20000.K

 NOTE. WEIGHT FRACTION OF FUEL IN TOTAL FUELS AND OF OXIDANT IN TOTAL OXIDANTS









               THERMODYNAMIC EQUILIBRIUM PROPERTIES AT ASSIGNED

                           TEMPERATURE AND PRESSURE

 CASE =                

             REACTANT                    WT FRACTION      ENERGY      TEMP
                                          (SEE NOTE)     KJ/KG-MOL      K  
             H2                           1.0000000         0.000      0.000

 O/F=    0.00000  %FUEL=100.000000  R,EQ.RATIO= 0.000000  PHI,EQ.RATIO= 0.000000

 THERMODYNAMIC PROPERTIES

 P, BAR            7.4000   7.4000   7.4000   7.4000   7.4000   8.2500   8.2500   8.2500
 T, K             7600.00  7610.00  7620.00  7630.00  7640.00  7500.00  7510.00  7520.00
 RHO, KG/CU M    1.1844-2 1.1828-2 1.1812-2 1.1796-2 1.1780-2 1.3393-2 1.3375-2 1.3356-2
 H, KJ/KG        365766.5 366000.2 366234.0 366467.6 366701.2 363172.0 363408.3 363644.5
 U, KJ/KG        303286.4 303435.2 303584.0 303732.7 303881.4 301573.5 301724.4 301875.3
 G, KJ/KG       -880489.8-882129.7-883770.0-885410.6-887051.5-857407.6-859035.2-860663.1
 S, KJ/(KG)(K)   163.9811 164.0118 164.0425 164.0732 164.1038 162.7440 162.7754 162.8069

 M, (1/n)           1.011    1.011    1.011    1.011    1.011    1.012    1.012    1.012
 (dLV/dLP)t      -1.00406 -1.00403 -1.00399 -1.00396 -1.00393 -1.00487 -1.00483 -1.00479
 (dLV/dLT)p        1.0335   1.0333   1.0331   1.0329   1.0326   1.0393   1.0390   1.0387
 Cp, KJ/(KG)(K)   23.3817  23.3752  23.3691  23.3634  23.3581  23.6366  23.6223  23.6086
 GAMMAs            1.5911   1.5911   1.5911   1.5910   1.5910   1.5884   1.5886   1.5887
 SON VEL,M/SEC     9970.6   9977.3   9984.0   9990.6   9997.2   9891.7   9899.0   9906.3

 TRANSPORT PROPERTIES (GASES ONLY)
   CONDUCTIVITY IN UNITS OF MILLIWATTS/(CM)(K)

 VISC,MILLIPOISE  0.79273  0.79361  0.79449  0.79536  0.79624  0.78489  0.78577  0.78664

  WITH EQUILIBRIUM REACTIONS

 Cp, KJ/(KG)(K)   23.3817  23.3752  23.3691  23.3634  23.3581  23.6366  23.6223  23.6086
 CONDUCTIVITY     27.2168  27.2219  27.2275  27.2334  27.2397  27.5044  27.5018  27.4997
 PRANDTL NUMBER    0.6810   0.6815   0.6819   0.6823   0.6828   0.6745   0.6749   0.6753

  WITH FROZEN REACTIONS

 Cp, KJ/(KG)(K)   20.6454  20.6456  20.6458  20.6460  20.6462  20.6431  20.6433  20.6435
 CONDUCTIVITY     24.5285  24.5576  24.5868  24.6159  24.6451  24.2525  24.2816  24.3106
 PRANDTL NUMBER    0.6672   0.6672   0.6671   0.6671   0.6670   0.6681   0.6680   0.6680

 MOLE FRACTIONS

 *e-              0.00047  0.00047  0.00048  0.00049  0.00049  0.00038  0.00038  0.00039
 *H               0.99520  0.99522  0.99525  0.99527  0.99529  0.99450  0.99453  0.99457
 *H+              0.00047  0.00047  0.00048  0.00049  0.00049  0.00038  0.00038  0.00039
 *H2              0.00386  0.00383  0.00379  0.00375  0.00372  0.00474  0.00470  0.00465

  * THERMODYNAMIC PROPERTIES FITTED TO 20000.K

 NOTE. WEIGHT FRACTION OF FUEL IN TOTAL FUELS AND OF OXIDANT IN TOTAL OXIDANTS









               THERMODYNAMIC EQUILIBRIUM PROPERTIES AT ASSIGNED

                           TEMPERATURE AND PRESSURE

 CASE =                

             REACTANT                    WT FRACTION      ENERGY      TEMP
                                          (SEE NOTE)     KJ/KG-MOL      K  
             H2                           1.0000000         0.000      0.000

 O/F=    0.00000  %FUEL=100.000000  R,EQ.RATIO= 0.000000  PHI,EQ.RATIO= 0.000000

 THERMODYNAMIC PROPERTIES

 P, BAR            8.2500   8.2500   8.2500   8.2500   8.2500   8.2500   8.2500   8.2500
 T, K             7530.00  7540.00  7550.00  7560.00  7570.00  7580.00  7590.00  7600.00
 RHO, KG/CU M    1.3338-2 1.3319-2 1.3301-2 1.3283-2 1.3265-2 1.3246-2 1.3228-2 1.3210-2
 H, KJ/KG        363880.5 364116.4 364352.2 364587.8 364823.3 365058.8 365294.1 365529.3
 U, KJ/KG        302026.0 302176.6 302327.1 302477.5 302627.8 302778.0 302928.1 303078.1
 G, KJ/KG       -862291.3-863919.9-865548.7-867177.9-868807.4-870437.1-872067.2-873697.6
 S, KJ/(KG)(K)   162.8382 162.8695 162.9008 162.9320 162.9631 162.9942 163.0252 163.0562

 M, (1/n)           1.012    1.012    1.012    1.012    1.012    1.012    1.012    1.012
 (dLV/dLP)t      -1.00475 -1.00471 -1.00467 -1.00463 -1.00459 -1.00455 -1.00451 -1.00448
 (dLV/dLT)p        1.0384   1.0381   1.0378   1.0375   1.0372   1.0369   1.0367   1.0364
 Cp, KJ/(KG)(K)   23.5953  23.5826  23.5703  23.5585  23.5471  23.5362  23.5258  23.5159
 GAMMAs            1.5889   1.5890   1.5891   1.5892   1.5893   1.5893   1.5894   1.5894
 SON VEL,M/SEC     9913.5   9920.7   9927.9   9935.0   9942.1   9949.1   9956.1   9963.1

 TRANSPORT PROPERTIES (GASES ONLY)
   CONDUCTIVITY IN UNITS OF MILLIWATTS/(CM)(K)

 VISC,MILLIPOISE  0.78752  0.78839  0.78927  0.79015  0.79102  0.79190  0.79277  0.79365

  WITH EQUILIBRIUM REACTIONS

 Cp, KJ/(KG)(K)   23.5953  23.5826  23.5703  23.5585  23.5471  23.5362  23.5258  23.5159
 CONDUCTIVITY     27.4981  27.4969  27.4962  27.4960  27.4963  27.4969  27.4981  27.4996
 PRANDTL NUMBER    0.6757   0.6762   0.6766   0.6770   0.6774   0.6778   0.6783   0.6787

  WITH FROZEN REACTIONS

 Cp, KJ/(KG)(K)   20.6437  20.6439  20.6441  20.6443  20.6445  20.6446  20.6448  20.6450
 CONDUCTIVITY     24.3397  24.3687  24.3978  24.4269  24.4560  24.4851  24.5142  24.5432
 PRANDTL NUMBER    0.6679   0.6679   0.6678   0.6678   0.6677   0.6677   0.6676   0.6676

 MOLE FRACTIONS

 *e-              0.00040  0.00040  0.00041  0.00041  0.00042  0.00043  0.00043  0.00044
 *H               0.99460  0.99463  0.99466  0.99469  0.99472  0.99475  0.99478  0.99481
 *H+              0.00040  0.00040  0.00041  0.00041  0.00042  0.00043  0.00043  0.00044
 *H2              0.00461  0.00456  0.00452  0.00447  0.00443  0.00439  0.00435  0.00430

  * THERMODYNAMIC PROPERTIES FITTED TO 20000.K

 NOTE. WEIGHT FRACTION OF FUEL IN TOTAL FUELS AND OF OXIDANT IN TOTAL OXIDANTS









               THERMODYNAMIC EQUILIBRIUM PROPERTIES AT ASSIGNED

                           TEMPERATURE AND PRESSURE

 CASE =                

             REACTANT                    WT FRACTION      ENERGY      TEMP
                                          (SEE NOTE)     KJ/KG-MOL      K  
             H2                           1.0000000         0.000      0.000

 O/F=    0.00000  %FUEL=100.000000  R,EQ.RATIO= 0.000000  PHI,EQ.RATIO= 0.000000

 THERMODYNAMIC PROPERTIES

 P, BAR            8.2500   8.2500   8.2500   8.2500   9.1000   9.1000   9.1000   9.1000
 T, K             7610.00  7620.00  7630.00  7640.00  7500.00  7510.00  7520.00  7530.00
 RHO, KG/CU M    1.3192-2 1.3174-2 1.3157-2 1.3139-2 1.4780-2 1.4760-2 1.4739-2 1.4719-2
 H, KJ/KG        365764.4 365999.4 366234.3 366469.2 362925.0 363163.0 363400.8 363638.4
 U, KJ/KG        303228.1 303378.0 303527.8 303677.5 301357.2 301509.6 301661.9 301814.0
 G, KJ/KG       -875328.4-876959.4-878590.7-880222.4-851368.6-852987.9-854607.4-856227.2
 S, KJ/(KG)(K)   163.0871 163.1180 163.1488 163.1795 161.9058 161.9375 161.9692 162.0008

 M, (1/n)           1.012    1.012    1.012    1.012    1.013    1.013    1.013    1.013
 (dLV/dLP)t      -1.00444 -1.00440 -1.00437 -1.00433 -1.00533 -1.00529 -1.00524 -1.00519
 (dLV/dLT)p        1.0361   1.0359   1.0356   1.0354   1.0426   1.0422   1.0419   1.0415
 Cp, KJ/(KG)(K)   23.5064  23.4973  23.4887  23.4805  23.8074  23.7901  23.7733  23.7570
 GAMMAs            1.5895   1.5895   1.5895   1.5896   1.5860   1.5862   1.5864   1.5866
 SON VEL,M/SEC     9970.0   9976.9   9983.7   9990.5   9881.5   9889.0   9896.5   9904.0

 TRANSPORT PROPERTIES (GASES ONLY)
   CONDUCTIVITY IN UNITS OF MILLIWATTS/(CM)(K)

 VISC,MILLIPOISE  0.79452  0.79540  0.79627  0.79715  0.78581  0.78668  0.78755  0.78843

  WITH EQUILIBRIUM REACTIONS

 Cp, KJ/(KG)(K)   23.5064  23.4973  23.4887  23.4805  23.8074  23.7901  23.7733  23.7570
 CONDUCTIVITY     27.5016  27.5040  27.5069  27.5101  27.8207  27.8146  27.8090  27.8039
 PRANDTL NUMBER    0.6791   0.6795   0.6800   0.6804   0.6725   0.6729   0.6733   0.6737

  WITH FROZEN REACTIONS

 Cp, KJ/(KG)(K)   20.6452  20.6454  20.6456  20.6458  20.6429  20.6431  20.6433  20.6435
 CONDUCTIVITY     24.5724  24.6015  24.6306  24.6597  24.2677  24.2967  24.3256  24.3546
 PRANDTL NUMBER    0.6675   0.6675   0.6674   0.6674   0.6684   0.6684   0.6683   0.6683

 MOLE FRACTIONS

 *e-              0.00045  0.00045  0.00046  0.00047  0.00036  0.00037  0.00037  0.00038
 *H               0.99484  0.99487  0.99489  0.99492  0.99405  0.99409  0.99413  0.99417
 *H+              0.00045  0.00045  0.00046  0.00047  0.00036  0.00036  0.00037  0.00038
 *H2              0.00426  0.00422  0.00418  0.00414  0.00523  0.00518  0.00513  0.00508

  * THERMODYNAMIC PROPERTIES FITTED TO 20000.K

 NOTE. WEIGHT FRACTION OF FUEL IN TOTAL FUELS AND OF OXIDANT IN TOTAL OXIDANTS









               THERMODYNAMIC EQUILIBRIUM PROPERTIES AT ASSIGNED

                           TEMPERATURE AND PRESSURE

 CASE =                

             REACTANT                    WT FRACTION      ENERGY      TEMP
                                          (SEE NOTE)     KJ/KG-MOL      K  
             H2                           1.0000000         0.000      0.000

 O/F=    0.00000  %FUEL=100.000000  R,EQ.RATIO= 0.000000  PHI,EQ.RATIO= 0.000000

 THERMODYNAMIC PROPERTIES

 P, BAR            9.1000   9.1000   9.1000   9.1000   9.1000   9.1000   9.1000   9.1000
 T, K             7540.00  7550.00  7560.00  7570.00  7580.00  7590.00  7600.00  7610.00
 RHO, KG/CU M    1.4699-2 1.4679-2 1.4658-2 1.4638-2 1.4618-2 1.4598-2 1.4578-2 1.4558-2
 H, KJ/KG        363875.9 364113.3 364350.4 364587.5 364824.4 365061.1 365297.8 365534.3
 U, KJ/KG        301966.0 302117.9 302269.6 302421.2 302572.7 302724.0 302875.3 303026.5
 G, KJ/KG       -857847.4-859467.9-861088.7-862709.8-864331.2-865953.0-867575.0-869197.4
 S, KJ/(KG)(K)   162.0323 162.0637 162.0951 162.1265 162.1577 162.1889 162.2201 162.2512

 M, (1/n)           1.013    1.013    1.013    1.012    1.012    1.012    1.012    1.012
 (dLV/dLP)t      -1.00515 -1.00511 -1.00506 -1.00502 -1.00498 -1.00493 -1.00489 -1.00485
 (dLV/dLT)p        1.0412   1.0409   1.0405   1.0402   1.0399   1.0396   1.0393   1.0390
 Cp, KJ/(KG)(K)   23.7412  23.7259  23.7111  23.6969  23.6831  23.6698  23.6570  23.6446
 GAMMAs            1.5867   1.5869   1.5871   1.5872   1.5873   1.5875   1.5876   1.5877
 SON VEL,M/SEC     9911.4   9918.7   9926.0   9933.3   9940.6   9947.8   9954.9   9962.1

 TRANSPORT PROPERTIES (GASES ONLY)
   CONDUCTIVITY IN UNITS OF MILLIWATTS/(CM)(K)

 VISC,MILLIPOISE  0.78930  0.79017  0.79104  0.79192  0.79279  0.79366  0.79453  0.79541

  WITH EQUILIBRIUM REACTIONS

 Cp, KJ/(KG)(K)   23.7412  23.7259  23.7111  23.6969  23.6831  23.6698  23.6570  23.6446
 CONDUCTIVITY     27.7993  27.7953  27.7917  27.7887  27.7861  27.7840  27.7824  27.7813
 PRANDTL NUMBER    0.6741   0.6745   0.6749   0.6753   0.6757   0.6761   0.6766   0.6770

  WITH FROZEN REACTIONS

 Cp, KJ/(KG)(K)   20.6436  20.6438  20.6440  20.6442  20.6444  20.6445  20.6447  20.6449
 CONDUCTIVITY     24.3836  24.4126  24.4416  24.4706  24.4996  24.5286  24.5577  24.5867
 PRANDTL NUMBER    0.6682   0.6682   0.6681   0.6681   0.6680   0.6680   0.6679   0.6679

 MOLE FRACTIONS

 *e-              0.00038  0.00039  0.00039  0.00040  0.00041  0.00041  0.00042  0.00043
 *H               0.99420  0.99424  0.99428  0.99431  0.99435  0.99438  0.99441  0.99445
 *H+              0.00038  0.00039  0.00039  0.00040  0.00041  0.00041  0.00042  0.00043
 *H2              0.00503  0.00498  0.00493  0.00488  0.00484  0.00479  0.00474  0.00470

  * THERMODYNAMIC PROPERTIES FITTED TO 20000.K

 NOTE. WEIGHT FRACTION OF FUEL IN TOTAL FUELS AND OF OXIDANT IN TOTAL OXIDANTS









               THERMODYNAMIC EQUILIBRIUM PROPERTIES AT ASSIGNED

                           TEMPERATURE AND PRESSURE

 CASE =                

             REACTANT                    WT FRACTION      ENERGY      TEMP
                                          (SEE NOTE)     KJ/KG-MOL      K  
             H2                           1.0000000         0.000      0.000

 O/F=    0.00000  %FUEL=100.000000  R,EQ.RATIO= 0.000000  PHI,EQ.RATIO= 0.000000

 THERMODYNAMIC PROPERTIES

 P, BAR            9.1000   9.1000   9.1000   10.000   10.000   10.000   10.000   10.000
 T, K             7620.00  7630.00  7640.00  7500.00  7510.00  7520.00  7530.00  7540.00
 RHO, KG/CU M    1.4538-2 1.4519-2 1.4499-2 1.6251-2 1.6228-2 1.6206-2 1.6183-2 1.6161-2
 H, KJ/KG        365770.7 366006.9 366243.1 362667.8 362907.7 363147.3 363386.7 363625.9
 U, KJ/KG        303177.5 303328.5 303479.3 301132.4 301286.4 301440.2 301593.9 301747.4
 G, KJ/KG       -870820.0-872443.0-874066.3-845563.7-847174.8-848786.2-850398.0-852010.1
 S, KJ/(KG)(K)   162.2822 162.3132 162.3442 161.0975 161.1295 161.1614 161.1932 161.2249

 M, (1/n)           1.012    1.012    1.012    1.013    1.013    1.013    1.013    1.013
 (dLV/dLP)t      -1.00481 -1.00477 -1.00473 -1.00582 -1.00577 -1.00572 -1.00567 -1.00562
 (dLV/dLT)p        1.0387   1.0384   1.0381   1.0461   1.0457   1.0453   1.0449   1.0445
 Cp, KJ/(KG)(K)   23.6328  23.6214  23.6105  23.9929  23.9724  23.9525  23.9331  23.9142
 GAMMAs            1.5878   1.5879   1.5879   1.5832   1.5835   1.5838   1.5840   1.5843
 SON VEL,M/SEC     9969.1   9976.2   9983.2   9870.4   9878.1   9885.8   9893.5   9901.1

 TRANSPORT PROPERTIES (GASES ONLY)
   CONDUCTIVITY IN UNITS OF MILLIWATTS/(CM)(K)

 VISC,MILLIPOISE  0.79628  0.79715  0.79802  0.78676  0.78763  0.78849  0.78936  0.79023

  WITH EQUILIBRIUM REACTIONS

 Cp, KJ/(KG)(K)   23.6328  23.6214  23.6105  23.9929  23.9724  23.9525  23.9331  23.9142
 CONDUCTIVITY     27.7806  27.7804  27.7806  28.1549  28.1450  28.1357  28.1270  28.1189
 PRANDTL NUMBER    0.6774   0.6778   0.6782   0.6705   0.6709   0.6713   0.6717   0.6721

  WITH FROZEN REACTIONS

 Cp, KJ/(KG)(K)   20.6451  20.6452  20.6454  20.6428  20.6429  20.6431  20.6433  20.6435
 CONDUCTIVITY     24.6157  24.6448  24.6738  24.2835  24.3124  24.3413  24.3702  24.3990
 PRANDTL NUMBER    0.6678   0.6678   0.6677   0.6688   0.6687   0.6687   0.6686   0.6686

 MOLE FRACTIONS

 *e-              0.00043  0.00044  0.00045  0.00034  0.00035  0.00035  0.00036  0.00036
 *H               0.99448  0.99451  0.99454  0.99357  0.99362  0.99366  0.99371  0.99375
 *H+              0.00043  0.00044  0.00045  0.00034  0.00035  0.00035  0.00036  0.00036
 *H2              0.00465  0.00461  0.00457  0.00574  0.00568  0.00563  0.00557  0.00552

  * THERMODYNAMIC PROPERTIES FITTED TO 20000.K

 NOTE. WEIGHT FRACTION OF FUEL IN TOTAL FUELS AND OF OXIDANT IN TOTAL OXIDANTS









               THERMODYNAMIC EQUILIBRIUM PROPERTIES AT ASSIGNED

                           TEMPERATURE AND PRESSURE

 CASE =                

             REACTANT                    WT FRACTION      ENERGY      TEMP
                                          (SEE NOTE)     KJ/KG-MOL      K  
             H2                           1.0000000         0.000      0.000

 O/F=    0.00000  %FUEL=100.000000  R,EQ.RATIO= 0.000000  PHI,EQ.RATIO= 0.000000

 THERMODYNAMIC PROPERTIES

 P, BAR            10.000   10.000   10.000   10.000   10.000   10.000   10.000   10.000
 T, K             7550.00  7560.00  7570.00  7580.00  7590.00  7600.00  7610.00  7620.00
 RHO, KG/CU M    1.6138-2 1.6116-2 1.6094-2 1.6072-2 1.6050-2 1.6028-2 1.6006-2 1.5984-2
 H, KJ/KG        363865.0 364103.9 364342.6 364581.1 364819.4 365057.6 365295.7 365533.6
 U, KJ/KG        301900.8 302053.9 302207.0 302359.9 302512.6 302665.2 302817.7 302970.1
 G, KJ/KG       -853622.5-855235.2-856848.3-858461.6-860075.3-861689.3-863303.6-864918.2
 S, KJ/(KG)(K)   161.2566 161.2882 161.3198 161.3513 161.3827 161.4141 161.4454 161.4766

 M, (1/n)           1.013    1.013    1.013    1.013    1.013    1.013    1.013    1.013
 (dLV/dLP)t      -1.00557 -1.00552 -1.00547 -1.00543 -1.00538 -1.00533 -1.00529 -1.00525
 (dLV/dLT)p        1.0441   1.0438   1.0434   1.0431   1.0427   1.0424   1.0420   1.0417
 Cp, KJ/(KG)(K)   23.8959  23.8781  23.8608  23.8441  23.8278  23.8121  23.7969  23.7821
 GAMMAs            1.5845   1.5847   1.5849   1.5851   1.5853   1.5854   1.5856   1.5858
 SON VEL,M/SEC     9908.6   9916.2   9923.6   9931.1   9938.5   9945.8   9953.2   9960.5

 TRANSPORT PROPERTIES (GASES ONLY)
   CONDUCTIVITY IN UNITS OF MILLIWATTS/(CM)(K)

 VISC,MILLIPOISE  0.79110  0.79197  0.79284  0.79370  0.79457  0.79544  0.79631  0.79718

  WITH EQUILIBRIUM REACTIONS

 Cp, KJ/(KG)(K)   23.8959  23.8781  23.8608  23.8441  23.8278  23.8121  23.7969  23.7821
 CONDUCTIVITY     28.1113  28.1043  28.0978  28.0918  28.0864  28.0815  28.0771  28.0732
 PRANDTL NUMBER    0.6725   0.6729   0.6733   0.6737   0.6741   0.6745   0.6749   0.6753

  WITH FROZEN REACTIONS

 Cp, KJ/(KG)(K)   20.6436  20.6438  20.6440  20.6441  20.6443  20.6445  20.6446  20.6448
 CONDUCTIVITY     24.4280  24.4569  24.4858  24.5147  24.5437  24.5726  24.6016  24.6305
 PRANDTL NUMBER    0.6685   0.6685   0.6684   0.6684   0.6683   0.6683   0.6682   0.6682

 MOLE FRACTIONS

 *e-              0.00037  0.00038  0.00038  0.00039  0.00039  0.00040  0.00041  0.00041
 *H               0.99379  0.99383  0.99387  0.99391  0.99395  0.99399  0.99402  0.99406
 *H+              0.00037  0.00038  0.00038  0.00039  0.00039  0.00040  0.00041  0.00041
 *H2              0.00547  0.00541  0.00536  0.00531  0.00526  0.00521  0.00516  0.00511

  * THERMODYNAMIC PROPERTIES FITTED TO 20000.K

 NOTE. WEIGHT FRACTION OF FUEL IN TOTAL FUELS AND OF OXIDANT IN TOTAL OXIDANTS









               THERMODYNAMIC EQUILIBRIUM PROPERTIES AT ASSIGNED

                           TEMPERATURE AND PRESSURE

 CASE =                

             REACTANT                    WT FRACTION      ENERGY      TEMP
                                          (SEE NOTE)     KJ/KG-MOL      K  
             H2                           1.0000000         0.000      0.000

 O/F=    0.00000  %FUEL=100.000000  R,EQ.RATIO= 0.000000  PHI,EQ.RATIO= 0.000000

 THERMODYNAMIC PROPERTIES

 P, BAR            10.000   10.000   11.000   11.000   11.000   11.000   11.000   11.000
 T, K             7630.00  7640.00  7500.00  7510.00  7520.00  7530.00  7540.00  7550.00
 RHO, KG/CU M    1.5962-2 1.5940-2 1.7886-2 1.7861-2 1.7836-2 1.7811-2 1.7787-2 1.7762-2
 H, KJ/KG        365771.3 366008.9 362386.5 362628.4 362870.1 363111.5 363352.8 363593.8
 U, KJ/KG        303122.3 303274.4 300886.7 301042.6 301198.2 301353.6 301508.9 301663.9
 G, KJ/KG       -866533.1-868148.4-839700.4-841303.3-842906.6-844510.2-846114.1-847718.3
 S, KJ/(KG)(K)   161.5078 161.5389 160.2783 160.3105 160.3426 160.3747 160.4067 160.4387

 M, (1/n)           1.013    1.013    1.014    1.014    1.014    1.014    1.014    1.014
 (dLV/dLP)t      -1.00520 -1.00516 -1.00636 -1.00630 -1.00625 -1.00619 -1.00614 -1.00608
 (dLV/dLT)p        1.0414   1.0411   1.0500   1.0495   1.0491   1.0486   1.0482   1.0478
 Cp, KJ/(KG)(K)   23.7679  23.7542  24.2031  24.1792  24.1558  24.1331  24.1109  24.0893
 GAMMAs            1.5859   1.5860   1.5801   1.5804   1.5808   1.5811   1.5814   1.5817
 SON VEL,M/SEC     9967.7   9974.9   9857.8   9865.8   9873.7   9881.5   9889.3   9897.1

 TRANSPORT PROPERTIES (GASES ONLY)
   CONDUCTIVITY IN UNITS OF MILLIWATTS/(CM)(K)

 VISC,MILLIPOISE  0.79805  0.79892  0.78779  0.78865  0.78951  0.79038  0.79124  0.79210

  WITH EQUILIBRIUM REACTIONS

 Cp, KJ/(KG)(K)   23.7679  23.7542  24.2031  24.1792  24.1558  24.1331  24.1109  24.0893
 CONDUCTIVITY     28.0697  28.0668  28.5250  28.5111  28.4978  28.4851  28.4731  28.4616
 PRANDTL NUMBER    0.6757   0.6762   0.6684   0.6688   0.6692   0.6696   0.6700   0.6704

  WITH FROZEN REACTIONS

 Cp, KJ/(KG)(K)   20.6449  20.6451  20.6426  20.6428  20.6430  20.6431  20.6433  20.6435
 CONDUCTIVITY     24.6595  24.6885  24.3009  24.3296  24.3584  24.3872  24.4159  24.4447
 PRANDTL NUMBER    0.6681   0.6681   0.6692   0.6691   0.6691   0.6690   0.6690   0.6689

 MOLE FRACTIONS

 *e-              0.00042  0.00043  0.00033  0.00033  0.00034  0.00034  0.00035  0.00035
 *H               0.99410  0.99413  0.99304  0.99309  0.99314  0.99319  0.99324  0.99328
 *H+              0.00042  0.00043  0.00033  0.00033  0.00034  0.00034  0.00035  0.00035
 *H2              0.00506  0.00501  0.00631  0.00624  0.00618  0.00612  0.00606  0.00601

  * THERMODYNAMIC PROPERTIES FITTED TO 20000.K

 NOTE. WEIGHT FRACTION OF FUEL IN TOTAL FUELS AND OF OXIDANT IN TOTAL OXIDANTS









               THERMODYNAMIC EQUILIBRIUM PROPERTIES AT ASSIGNED

                           TEMPERATURE AND PRESSURE

 CASE =                

             REACTANT                    WT FRACTION      ENERGY      TEMP
                                          (SEE NOTE)     KJ/KG-MOL      K  
             H2                           1.0000000         0.000      0.000

 O/F=    0.00000  %FUEL=100.000000  R,EQ.RATIO= 0.000000  PHI,EQ.RATIO= 0.000000

 THERMODYNAMIC PROPERTIES

 P, BAR            11.000   11.000   11.000   11.000   11.000   11.000   11.000   11.000
 T, K             7560.00  7570.00  7580.00  7590.00  7600.00  7610.00  7620.00  7630.00
 RHO, KG/CU M    1.7737-2 1.7713-2 1.7688-2 1.7664-2 1.7640-2 1.7615-2 1.7591-2 1.7567-2
 H, KJ/KG        363834.5 364075.1 364315.5 364555.7 364795.7 365035.5 365275.1 365514.5
 U, KJ/KG        301818.7 301973.4 302127.9 302282.2 302436.4 302590.4 302744.3 302898.0
 G, KJ/KG       -849322.9-850927.7-852532.9-854138.4-855744.2-857350.3-858956.8-860563.6
 S, KJ/(KG)(K)   160.4706 160.5024 160.5341 160.5658 160.5974 160.6289 160.6604 160.6918

 M, (1/n)           1.014    1.014    1.013    1.013    1.013    1.013    1.013    1.013
 (dLV/dLP)t      -1.00603 -1.00598 -1.00593 -1.00587 -1.00582 -1.00577 -1.00573 -1.00568
 (dLV/dLT)p        1.0474   1.0470   1.0466   1.0462   1.0458   1.0454   1.0451   1.0447
 Cp, KJ/(KG)(K)   24.0682  24.0477  24.0278  24.0084  23.9896  23.9712  23.9534  23.9362
 GAMMAs            1.5819   1.5822   1.5825   1.5827   1.5829   1.5832   1.5834   1.5836
 SON VEL,M/SEC     9904.8   9912.5   9920.2   9927.8   9935.4   9942.9   9950.4   9957.8

 TRANSPORT PROPERTIES (GASES ONLY)
   CONDUCTIVITY IN UNITS OF MILLIWATTS/(CM)(K)

 VISC,MILLIPOISE  0.79297  0.79383  0.79470  0.79556  0.79643  0.79729  0.79816  0.79902

  WITH EQUILIBRIUM REACTIONS

 Cp, KJ/(KG)(K)   24.0682  24.0477  24.0278  24.0084  23.9896  23.9712  23.9534  23.9362
 CONDUCTIVITY     28.4508  28.4405  28.4308  28.4217  28.4131  28.4051  28.3976  28.3907
 PRANDTL NUMBER    0.6708   0.6712   0.6716   0.6720   0.6724   0.6728   0.6732   0.6737

  WITH FROZEN REACTIONS

 Cp, KJ/(KG)(K)   20.6436  20.6438  20.6439  20.6441  20.6442  20.6444  20.6445  20.6447
 CONDUCTIVITY     24.4736  24.5024  24.5312  24.5601  24.5889  24.6178  24.6467  24.6756
 PRANDTL NUMBER    0.6689   0.6688   0.6688   0.6687   0.6687   0.6686   0.6686   0.6685

 MOLE FRACTIONS

 *e-              0.00036  0.00036  0.00037  0.00038  0.00038  0.00039  0.00039  0.00040
 *H               0.99333  0.99338  0.99342  0.99347  0.99351  0.99355  0.99359  0.99363
 *H+              0.00036  0.00036  0.00037  0.00038  0.00038  0.00039  0.00039  0.00040
 *H2              0.00595  0.00589  0.00583  0.00578  0.00572  0.00567  0.00562  0.00556

  * THERMODYNAMIC PROPERTIES FITTED TO 20000.K

 NOTE. WEIGHT FRACTION OF FUEL IN TOTAL FUELS AND OF OXIDANT IN TOTAL OXIDANTS









               THERMODYNAMIC EQUILIBRIUM PROPERTIES AT ASSIGNED

                           TEMPERATURE AND PRESSURE

 CASE =                

             REACTANT                    WT FRACTION      ENERGY      TEMP
                                          (SEE NOTE)     KJ/KG-MOL      K  
             H2                           1.0000000         0.000      0.000

 O/F=    0.00000  %FUEL=100.000000  R,EQ.RATIO= 0.000000  PHI,EQ.RATIO= 0.000000

 THERMODYNAMIC PROPERTIES

 P, BAR            11.000
 T, K             7640.00
 RHO, KG/CU M    1.7543-2
 H, KJ/KG        365753.8
 U, KJ/KG        303051.5
 G, KJ/KG       -862170.6
 S, KJ/(KG)(K)   160.7231

 M, (1/n)           1.013
 (dLV/dLP)t      -1.00563
 (dLV/dLT)p        1.0443
 Cp, KJ/(KG)(K)   23.9194
 GAMMAs            1.5838
 SON VEL,M/SEC     9965.2

 TRANSPORT PROPERTIES (GASES ONLY)
   CONDUCTIVITY IN UNITS OF MILLIWATTS/(CM)(K)

 VISC,MILLIPOISE  0.79989

  WITH EQUILIBRIUM REACTIONS

 Cp, KJ/(KG)(K)   23.9194
 CONDUCTIVITY     28.3843
 PRANDTL NUMBER    0.6741

  WITH FROZEN REACTIONS

 Cp, KJ/(KG)(K)   20.6448
 CONDUCTIVITY     24.7044
 PRANDTL NUMBER    0.6684

 MOLE FRACTIONS

 *e-              0.00041
 *H               0.99368
 *H+              0.00041
 *H2              0.00551

  * THERMODYNAMIC PROPERTIES FITTED TO 20000.K

 NOTE. WEIGHT FRACTION OF FUEL IN TOTAL FUELS AND OF OXIDANT IN TOTAL OXIDANTS



  
