
 *******************************************************************************

         NASA-GLENN CHEMICAL EQUILIBRIUM PROGRAM CEA2, MAY 21, 2004
                   BY  BONNIE MCBRIDE AND SANFORD GORDON
      REFS: NASA RP-1311, PART I, 1994 AND NASA RP-1311, PART II, 1996

 *******************************************************************************



  prob tp ions
  p,bar= 0.0049,0.0054,0.006,0.0067,0.0074,0.00825,0.0091,0.01,0.011,0.012,0.0132
 ,0.0148,0.0165,0.018,0.02
  t,k= 6450,6460,6470,6480,6490,6500,6510,6520,6530,6540,6550,6560,6570,6580,6590
  
  reac
  na H2                wt%=100.0000
  
  output short
  output siunits
  output transport
  
 end





               THERMODYNAMIC EQUILIBRIUM PROPERTIES AT ASSIGNED

                           TEMPERATURE AND PRESSURE

 CASE =                

             REACTANT                    WT FRACTION      ENERGY      TEMP
                                          (SEE NOTE)     KJ/KG-MOL      K  
             H2                           1.0000000         0.000      0.000

 O/F=    0.00000  %FUEL=100.000000  R,EQ.RATIO= 0.000000  PHI,EQ.RATIO= 0.000000

 THERMODYNAMIC PROPERTIES

 P, BAR           0.00490  0.00490  0.00490  0.00490  0.00490  0.00490  0.00490  0.00490
 T, K             6450.00  6460.00  6470.00  6480.00  6490.00  6500.00  6510.00  6520.00
 RHO, KG/CU M    9.1882-6 9.1736-6 9.1589-6 9.1443-6 9.1298-6 9.1152-6 9.1008-6 9.0863-6
 H, KJ/KG        346468.3 346745.2 347023.3 347302.8 347583.5 347865.7 348149.2 348434.1
 U, KJ/KG        293139.2 293330.8 293523.6 293717.6 293913.0 294109.6 294307.5 294506.7
 G, KJ/KG       -1083099.-1085316.-1087533.-1089750.-1091968.-1094187.-1096405.-1098624.
 S, KJ/(KG)(K)   221.6384 221.6813 221.7243 221.7674 221.8107 221.8542 221.8978 221.9415

 M, (1/n)           1.006    1.006    1.006    1.005    1.005    1.005    1.005    1.005
 (dLV/dLP)t      -1.00117 -1.00119 -1.00122 -1.00124 -1.00127 -1.00129 -1.00132 -1.00135
 (dLV/dLT)p        1.0313   1.0319   1.0325   1.0332   1.0338   1.0344   1.0351   1.0358
 Cp, KJ/(KG)(K)   27.6220  27.7498  27.8796  28.0113  28.1450  28.2807  28.4184  28.5582
 GAMMAs            1.4645   1.4622   1.4598   1.4575   1.4551   1.4527   1.4503   1.4480
 SON VEL,M/SEC     8837.6   8837.5   8837.4   8837.3   8837.2   8837.0   8836.8   8836.6

 TRANSPORT PROPERTIES (GASES ONLY)
   CONDUCTIVITY IN UNITS OF MILLIWATTS/(CM)(K)

 VISC,MILLIPOISE  0.66179  0.66241  0.66302  0.66363  0.66423  0.66482  0.66541  0.66599

  WITH EQUILIBRIUM REACTIONS

 Cp, KJ/(KG)(K)   27.6220  27.7498  27.8796  28.0113  28.1450  28.2807  28.4184  28.5582
 CONDUCTIVITY     21.9490  21.9950  22.0412  22.0877  22.1343  22.1812  22.2283  22.2755
 PRANDTL NUMBER    0.8328   0.8357   0.8386   0.8416   0.8446   0.8476   0.8507   0.8538

  WITH FROZEN REACTIONS

 Cp, KJ/(KG)(K)   20.6574  20.6585  20.6597  20.6608  20.6620  20.6633  20.6645  20.6658
 CONDUCTIVITY     20.7107  20.7333  20.7558  20.7781  20.8001  20.8220  20.8437  20.8652
 PRANDTL NUMBER    0.6601   0.6600   0.6599   0.6599   0.6598   0.6598   0.6597   0.6596

 MOLE FRACTIONS

 *e-              0.00231  0.00236  0.00241  0.00246  0.00252  0.00257  0.00262  0.00267
 *H               0.99536  0.99526  0.99516  0.99506  0.99496  0.99486  0.99475  0.99464
 *H+              0.00231  0.00236  0.00241  0.00246  0.00252  0.00257  0.00262  0.00267
 *H2              0.00001  0.00001  0.00001  0.00001  0.00001  0.00001  0.00001  0.00001

  * THERMODYNAMIC PROPERTIES FITTED TO 20000.K

 NOTE. WEIGHT FRACTION OF FUEL IN TOTAL FUELS AND OF OXIDANT IN TOTAL OXIDANTS









               THERMODYNAMIC EQUILIBRIUM PROPERTIES AT ASSIGNED

                           TEMPERATURE AND PRESSURE

 CASE =                

             REACTANT                    WT FRACTION      ENERGY      TEMP
                                          (SEE NOTE)     KJ/KG-MOL      K  
             H2                           1.0000000         0.000      0.000

 O/F=    0.00000  %FUEL=100.000000  R,EQ.RATIO= 0.000000  PHI,EQ.RATIO= 0.000000

 THERMODYNAMIC PROPERTIES

 P, BAR           0.00490  0.00490  0.00490  0.00490  0.00490  0.00490  0.00490  0.00540
 T, K             6530.00  6540.00  6550.00  6560.00  6570.00  6580.00  6590.00  6450.00
 RHO, KG/CU M    9.0719-6 9.0575-6 9.0432-6 9.0288-6 9.0146-6 9.0003-6 8.9861-6 1.0127-5
 H, KJ/KG        348720.3 349008.1 349297.2 349587.9 349880.0 350173.6 350468.8 346310.0
 U, KJ/KG        294707.3 294909.3 295112.6 295317.4 295523.5 295731.2 295940.2 292986.8
 G, KJ/KG       -1100844.-1103064.-1105285.-1107506.-1109727.-1111949.-1114171.-1077918.
 S, KJ/(KG)(K)   221.9854 222.0294 222.0736 222.1179 222.1624 222.2071 222.2519 220.8105

 M, (1/n)           1.005    1.005    1.005    1.005    1.005    1.005    1.005    1.006
 (dLV/dLP)t      -1.00137 -1.00140 -1.00143 -1.00146 -1.00149 -1.00152 -1.00155 -1.00111
 (dLV/dLT)p        1.0365   1.0372   1.0379   1.0386   1.0393   1.0401   1.0408   1.0298
 Cp, KJ/(KG)(K)   28.7000  28.8439  28.9899  29.1381  29.2884  29.4409  29.5956  27.2903
 GAMMAs            1.4456   1.4432   1.4408   1.4384   1.4360   1.4337   1.4313   1.4709
 SON VEL,M/SEC     8836.3   8836.0   8835.7   8835.4   8835.1   8834.7   8834.3   8856.3

 TRANSPORT PROPERTIES (GASES ONLY)
   CONDUCTIVITY IN UNITS OF MILLIWATTS/(CM)(K)

 VISC,MILLIPOISE  0.66656  0.66712  0.66768  0.66823  0.66878  0.66931  0.66984  0.66251

  WITH EQUILIBRIUM REACTIONS

 Cp, KJ/(KG)(K)   28.7000  28.8439  28.9899  29.1381  29.2884  29.4409  29.5956  27.2903
 CONDUCTIVITY     22.3230  22.3707  22.4185  22.4666  22.5149  22.5634  22.6122  21.9070
 PRANDTL NUMBER    0.8570   0.8602   0.8634   0.8667   0.8700   0.8733   0.8767   0.8253

  WITH FROZEN REACTIONS

 Cp, KJ/(KG)(K)   20.6671  20.6684  20.6698  20.6712  20.6726  20.6740  20.6755  20.6551
 CONDUCTIVITY     20.8866  20.9077  20.9286  20.9493  20.9697  20.9900  21.0100  20.7263
 PRANDTL NUMBER    0.6596   0.6595   0.6594   0.6594   0.6593   0.6592   0.6592   0.6602

 MOLE FRACTIONS

 *e-              0.00273  0.00279  0.00284  0.00290  0.00296  0.00302  0.00308  0.00221
 *H               0.99453  0.99442  0.99431  0.99419  0.99407  0.99395  0.99383  0.99558
 *H+              0.00273  0.00279  0.00284  0.00290  0.00296  0.00302  0.00308  0.00221
 *H2              0.00001  0.00001  0.00001  0.00001  0.00001  0.00001  0.00001  0.00001

  * THERMODYNAMIC PROPERTIES FITTED TO 20000.K

 NOTE. WEIGHT FRACTION OF FUEL IN TOTAL FUELS AND OF OXIDANT IN TOTAL OXIDANTS









               THERMODYNAMIC EQUILIBRIUM PROPERTIES AT ASSIGNED

                           TEMPERATURE AND PRESSURE

 CASE =                

             REACTANT                    WT FRACTION      ENERGY      TEMP
                                          (SEE NOTE)     KJ/KG-MOL      K  
             H2                           1.0000000         0.000      0.000

 O/F=    0.00000  %FUEL=100.000000  R,EQ.RATIO= 0.000000  PHI,EQ.RATIO= 0.000000

 THERMODYNAMIC PROPERTIES

 P, BAR           0.00540  0.00540  0.00540  0.00540  0.00540  0.00540  0.00540  0.00540
 T, K             6460.00  6470.00  6480.00  6490.00  6500.00  6510.00  6520.00  6530.00
 RHO, KG/CU M    1.0111-5 1.0095-5 1.0079-5 1.0063-5 1.0047-5 1.0031-5 1.0015-5 9.9989-6
 H, KJ/KG        346583.5 346858.3 347134.2 347411.5 347690.0 347969.8 348251.0 348533.5
 U, KJ/KG        293175.2 293364.7 293555.4 293747.3 293940.5 294134.9 294330.5 294527.5
 G, KJ/KG       -1080126.-1082335.-1084544.-1086754.-1088964.-1091174.-1093385.-1095596.
 S, KJ/(KG)(K)   220.8529 220.8954 220.9380 220.9808 221.0236 221.0667 221.1098 221.1531

 M, (1/n)           1.006    1.006    1.006    1.006    1.005    1.005    1.005    1.005
 (dLV/dLP)t      -1.00114 -1.00116 -1.00118 -1.00121 -1.00123 -1.00126 -1.00128 -1.00131
 (dLV/dLT)p        1.0304   1.0310   1.0316   1.0322   1.0328   1.0335   1.0341   1.0348
 Cp, KJ/(KG)(K)   27.4121  27.5357  27.6612  27.7885  27.9178  28.0490  28.1821  28.3172
 GAMMAs            1.4686   1.4663   1.4640   1.4616   1.4593   1.4569   1.4546   1.4522
 SON VEL,M/SEC     8856.4   8856.5   8856.5   8856.5   8856.4   8856.3   8856.2   8856.1

 TRANSPORT PROPERTIES (GASES ONLY)
   CONDUCTIVITY IN UNITS OF MILLIWATTS/(CM)(K)

 VISC,MILLIPOISE  0.66314  0.66377  0.66439  0.66501  0.66562  0.66622  0.66682  0.66741

  WITH EQUILIBRIUM REACTIONS

 Cp, KJ/(KG)(K)   27.4121  27.5357  27.6612  27.7885  27.9178  28.0490  28.1821  28.3172
 CONDUCTIVITY     21.9524  21.9980  22.0437  22.0897  22.1358  22.1822  22.2287  22.2754
 PRANDTL NUMBER    0.8281   0.8309   0.8337   0.8366   0.8395   0.8424   0.8454   0.8484

  WITH FROZEN REACTIONS

 Cp, KJ/(KG)(K)   20.6562  20.6573  20.6584  20.6596  20.6607  20.6619  20.6632  20.6644
 CONDUCTIVITY     20.7493  20.7722  20.7950  20.8175  20.8399  20.8621  20.8841  20.9060
 PRANDTL NUMBER    0.6602   0.6601   0.6600   0.6600   0.6599   0.6598   0.6598   0.6597

 MOLE FRACTIONS

 *e-              0.00225  0.00230  0.00235  0.00240  0.00245  0.00250  0.00255  0.00260
 *H               0.99549  0.99539  0.99530  0.99520  0.99510  0.99500  0.99489  0.99479
 *H+              0.00225  0.00230  0.00235  0.00240  0.00245  0.00250  0.00255  0.00260
 *H2              0.00001  0.00001  0.00001  0.00001  0.00001  0.00001  0.00001  0.00001

  * THERMODYNAMIC PROPERTIES FITTED TO 20000.K

 NOTE. WEIGHT FRACTION OF FUEL IN TOTAL FUELS AND OF OXIDANT IN TOTAL OXIDANTS









               THERMODYNAMIC EQUILIBRIUM PROPERTIES AT ASSIGNED

                           TEMPERATURE AND PRESSURE

 CASE =                

             REACTANT                    WT FRACTION      ENERGY      TEMP
                                          (SEE NOTE)     KJ/KG-MOL      K  
             H2                           1.0000000         0.000      0.000

 O/F=    0.00000  %FUEL=100.000000  R,EQ.RATIO= 0.000000  PHI,EQ.RATIO= 0.000000

 THERMODYNAMIC PROPERTIES

 P, BAR           0.00540  0.00540  0.00540  0.00540  0.00540  0.00540  0.00600  0.00600
 T, K             6540.00  6550.00  6560.00  6570.00  6580.00  6590.00  6450.00  6460.00
 RHO, KG/CU M    9.9831-6 9.9673-6 9.9515-6 9.9358-6 9.9202-6 9.9045-6 1.1253-5 1.1236-5
 H, KJ/KG        348817.3 349102.6 349389.2 349677.3 349966.8 350257.7 346146.7 346416.8
 U, KJ/KG        294725.7 294925.3 295126.2 295328.5 295532.1 295737.2 292829.7 293014.7
 G, KJ/KG       -1097808.-1100020.-1102233.-1104446.-1106659.-1108873.-1072300.-1074499.
 S, KJ/(KG)(K)   221.1966 221.2401 221.2839 221.3277 221.3718 221.4160 219.9142 219.9561

 M, (1/n)           1.005    1.005    1.005    1.005    1.005    1.005    1.006    1.006
 (dLV/dLP)t      -1.00134 -1.00136 -1.00139 -1.00142 -1.00145 -1.00148 -1.00106 -1.00108
 (dLV/dLT)p        1.0354   1.0361   1.0368   1.0375   1.0382   1.0389   1.0283   1.0289
 Cp, KJ/(KG)(K)   28.4543  28.5934  28.7345  28.8777  29.0229  29.1703  26.9486  27.0641
 GAMMAs            1.4499   1.4475   1.4452   1.4428   1.4404   1.4381   1.4778   1.4755
 SON VEL,M/SEC     8855.9   8855.7   8855.5   8855.2   8855.0   8854.7   8876.3   8876.6

 TRANSPORT PROPERTIES (GASES ONLY)
   CONDUCTIVITY IN UNITS OF MILLIWATTS/(CM)(K)

 VISC,MILLIPOISE  0.66800  0.66857  0.66914  0.66971  0.67026  0.67081  0.66325  0.66390

  WITH EQUILIBRIUM REACTIONS

 Cp, KJ/(KG)(K)   28.4543  28.5934  28.7345  28.8777  29.0229  29.1703  26.9486  27.0641
 CONDUCTIVITY     22.3224  22.3695  22.4169  22.4644  22.5121  22.5601  21.8637  21.9084
 PRANDTL NUMBER    0.8515   0.8546   0.8577   0.8609   0.8641   0.8674   0.8175   0.8201

  WITH FROZEN REACTIONS

 Cp, KJ/(KG)(K)   20.6657  20.6670  20.6683  20.6697  20.6711  20.6725  20.6528  20.6538
 CONDUCTIVITY     20.9276  20.9490  20.9703  20.9913  21.0122  21.0328  20.7421  20.7656
 PRANDTL NUMBER    0.6596   0.6596   0.6595   0.6594   0.6594   0.6593   0.6604   0.6603

 MOLE FRACTIONS

 *e-              0.00265  0.00271  0.00276  0.00282  0.00288  0.00294  0.00209  0.00214
 *H               0.99468  0.99457  0.99446  0.99435  0.99424  0.99412  0.99580  0.99572
 *H+              0.00265  0.00271  0.00276  0.00282  0.00288  0.00294  0.00209  0.00214
 *H2              0.00001  0.00001  0.00001  0.00001  0.00001  0.00001  0.00001  0.00001

  * THERMODYNAMIC PROPERTIES FITTED TO 20000.K

 NOTE. WEIGHT FRACTION OF FUEL IN TOTAL FUELS AND OF OXIDANT IN TOTAL OXIDANTS









               THERMODYNAMIC EQUILIBRIUM PROPERTIES AT ASSIGNED

                           TEMPERATURE AND PRESSURE

 CASE =                

             REACTANT                    WT FRACTION      ENERGY      TEMP
                                          (SEE NOTE)     KJ/KG-MOL      K  
             H2                           1.0000000         0.000      0.000

 O/F=    0.00000  %FUEL=100.000000  R,EQ.RATIO= 0.000000  PHI,EQ.RATIO= 0.000000

 THERMODYNAMIC PROPERTIES

 P, BAR           0.00600  0.00600  0.00600  0.00600  0.00600  0.00600  0.00600  0.00600
 T, K             6470.00  6480.00  6490.00  6500.00  6510.00  6520.00  6530.00  6540.00
 RHO, KG/CU M    1.1218-5 1.1200-5 1.1182-5 1.1164-5 1.1147-5 1.1129-5 1.1111-5 1.1094-5
 H, KJ/KG        346688.0 346960.4 347234.0 347508.9 347784.9 348062.2 348340.8 348620.7
 U, KJ/KG        293200.8 293388.1 293576.5 293766.1 293956.9 294148.9 294342.1 294536.5
 G, KJ/KG       -1076699.-1078899.-1081100.-1083301.-1085502.-1087704.-1089907.-1092109.
 S, KJ/(KG)(K)   219.9980 220.0401 220.0823 220.1246 220.1670 220.2096 220.2523 220.2951

 M, (1/n)           1.006    1.006    1.006    1.006    1.006    1.006    1.005    1.005
 (dLV/dLP)t      -1.00110 -1.00112 -1.00115 -1.00117 -1.00120 -1.00122 -1.00124 -1.00127
 (dLV/dLT)p        1.0294   1.0300   1.0306   1.0312   1.0318   1.0324   1.0330   1.0336
 Cp, KJ/(KG)(K)   27.1813  27.3003  27.4212  27.5438  27.6682  27.7945  27.9227  28.0527
 GAMMAs            1.4732   1.4709   1.4686   1.4663   1.4640   1.4617   1.4594   1.4570
 SON VEL,M/SEC     8876.8   8876.9   8877.0   8877.1   8877.1   8877.2   8877.1   8877.1

 TRANSPORT PROPERTIES (GASES ONLY)
   CONDUCTIVITY IN UNITS OF MILLIWATTS/(CM)(K)

 VISC,MILLIPOISE  0.66454  0.66518  0.66582  0.66645  0.66707  0.66768  0.66829  0.66890

  WITH EQUILIBRIUM REACTIONS

 Cp, KJ/(KG)(K)   27.1813  27.3003  27.4212  27.5438  27.6682  27.7945  27.9227  28.0527
 CONDUCTIVITY     21.9532  21.9983  22.0435  22.0889  22.1345  22.1803  22.2263  22.2724
 PRANDTL NUMBER    0.8228   0.8255   0.8282   0.8310   0.8338   0.8367   0.8396   0.8425

  WITH FROZEN REACTIONS

 Cp, KJ/(KG)(K)   20.6549  20.6559  20.6570  20.6581  20.6593  20.6605  20.6617  20.6629
 CONDUCTIVITY     20.7890  20.8122  20.8352  20.8581  20.8808  20.9033  20.9257  20.9479
 PRANDTL NUMBER    0.6603   0.6602   0.6601   0.6601   0.6600   0.6599   0.6599   0.6598

 MOLE FRACTIONS

 *e-              0.00218  0.00223  0.00227  0.00232  0.00237  0.00242  0.00247  0.00252
 *H               0.99563  0.99554  0.99544  0.99535  0.99525  0.99515  0.99505  0.99495
 *H+              0.00218  0.00223  0.00227  0.00232  0.00237  0.00242  0.00247  0.00252
 *H2              0.00001  0.00001  0.00001  0.00001  0.00001  0.00001  0.00001  0.00001

  * THERMODYNAMIC PROPERTIES FITTED TO 20000.K

 NOTE. WEIGHT FRACTION OF FUEL IN TOTAL FUELS AND OF OXIDANT IN TOTAL OXIDANTS









               THERMODYNAMIC EQUILIBRIUM PROPERTIES AT ASSIGNED

                           TEMPERATURE AND PRESSURE

 CASE =                

             REACTANT                    WT FRACTION      ENERGY      TEMP
                                          (SEE NOTE)     KJ/KG-MOL      K  
             H2                           1.0000000         0.000      0.000

 O/F=    0.00000  %FUEL=100.000000  R,EQ.RATIO= 0.000000  PHI,EQ.RATIO= 0.000000

 THERMODYNAMIC PROPERTIES

 P, BAR           0.00600  0.00600  0.00600  0.00600  0.00600  0.00670  0.00670  0.00670
 T, K             6550.00  6560.00  6570.00  6580.00  6590.00  6450.00  6460.00  6470.00
 RHO, KG/CU M    1.1076-5 1.1059-5 1.1041-5 1.1024-5 1.1007-5 1.2568-5 1.2548-5 1.2528-5
 H, KJ/KG        348901.9 349184.4 349468.2 349753.5 350040.1 345984.6 346251.3 346519.0
 U, KJ/KG        294732.2 294929.1 295127.4 295326.9 295527.8 292673.6 292855.4 293038.2
 G, KJ/KG       -1094313.-1096516.-1098720.-1100925.-1103130.-1066417.-1068607.-1070797.
 S, KJ/(KG)(K)   220.3381 220.3812 220.4244 220.4678 220.5113 218.9770 219.0183 219.0597

 M, (1/n)           1.005    1.005    1.005    1.005    1.005    1.006    1.006    1.006
 (dLV/dLP)t      -1.00130 -1.00132 -1.00135 -1.00137 -1.00140 -1.00100 -1.00102 -1.00104
 (dLV/dLT)p        1.0343   1.0349   1.0356   1.0362   1.0369   1.0268   1.0273   1.0279
 Cp, KJ/(KG)(K)   28.1846  28.3185  28.4543  28.5921  28.7319  26.6095  26.7188  26.8298
 GAMMAs            1.4547   1.4524   1.4501   1.4477   1.4454   1.4848   1.4825   1.4803
 SON VEL,M/SEC     8877.0   8876.9   8876.8   8876.6   8876.5   8896.9   8897.2   8897.6

 TRANSPORT PROPERTIES (GASES ONLY)
   CONDUCTIVITY IN UNITS OF MILLIWATTS/(CM)(K)

 VISC,MILLIPOISE  0.66949  0.67008  0.67066  0.67124  0.67181  0.66398  0.66465  0.66531

  WITH EQUILIBRIUM REACTIONS

 Cp, KJ/(KG)(K)   28.1846  28.3185  28.4543  28.5921  28.7319  26.6095  26.7188  26.8298
 CONDUCTIVITY     22.3188  22.3654  22.4121  22.4590  22.5062  21.8206  21.8646  21.9087
 PRANDTL NUMBER    0.8454   0.8484   0.8515   0.8545   0.8576   0.8097   0.8122   0.8148

  WITH FROZEN REACTIONS

 Cp, KJ/(KG)(K)   20.6641  20.6654  20.6667  20.6680  20.6694  20.6505  20.6515  20.6524
 CONDUCTIVITY     20.9699  20.9917  21.0133  21.0347  21.0559  20.7575  20.7815  20.8053
 PRANDTL NUMBER    0.6597   0.6597   0.6596   0.6595   0.6595   0.6606   0.6605   0.6604

 MOLE FRACTIONS

 *e-              0.00257  0.00262  0.00268  0.00273  0.00279  0.00198  0.00202  0.00206
 *H               0.99485  0.99475  0.99464  0.99453  0.99442  0.99603  0.99594  0.99586
 *H+              0.00257  0.00262  0.00268  0.00273  0.00279  0.00198  0.00202  0.00206
 *H2              0.00001  0.00001  0.00001  0.00001  0.00001  0.00001  0.00001  0.00001

  * THERMODYNAMIC PROPERTIES FITTED TO 20000.K

 NOTE. WEIGHT FRACTION OF FUEL IN TOTAL FUELS AND OF OXIDANT IN TOTAL OXIDANTS









               THERMODYNAMIC EQUILIBRIUM PROPERTIES AT ASSIGNED

                           TEMPERATURE AND PRESSURE

 CASE =                

             REACTANT                    WT FRACTION      ENERGY      TEMP
                                          (SEE NOTE)     KJ/KG-MOL      K  
             H2                           1.0000000         0.000      0.000

 O/F=    0.00000  %FUEL=100.000000  R,EQ.RATIO= 0.000000  PHI,EQ.RATIO= 0.000000

 THERMODYNAMIC PROPERTIES

 P, BAR           0.00670  0.00670  0.00670  0.00670  0.00670  0.00670  0.00670  0.00670
 T, K             6480.00  6490.00  6500.00  6510.00  6520.00  6530.00  6540.00  6550.00
 RHO, KG/CU M    1.2508-5 1.2488-5 1.2468-5 1.2449-5 1.2429-5 1.2409-5 1.2390-5 1.2370-5
 H, KJ/KG        346787.9 347057.9 347329.0 347601.3 347874.8 348149.5 348425.4 348702.6
 U, KJ/KG        293222.0 293407.0 293593.0 293780.2 293968.5 294158.0 294348.6 294540.5
 G, KJ/KG       -1072988.-1075179.-1077371.-1079563.-1081755.-1083948.-1086142.-1088335.
 S, KJ/(KG)(K)   219.1012 219.1429 219.1846 219.2265 219.2685 219.3106 219.3528 219.3951

 M, (1/n)           1.006    1.006    1.006    1.006    1.006    1.006    1.006    1.005
 (dLV/dLP)t      -1.00107 -1.00109 -1.00111 -1.00113 -1.00116 -1.00118 -1.00120 -1.00123
 (dLV/dLT)p        1.0284   1.0290   1.0295   1.0301   1.0307   1.0312   1.0318   1.0324
 Cp, KJ/(KG)(K)   26.9424  27.0567  27.1727  27.2905  27.4100  27.5312  27.6543  27.7791
 GAMMAs            1.4780   1.4758   1.4735   1.4713   1.4690   1.4667   1.4644   1.4621
 SON VEL,M/SEC     8897.9   8898.1   8898.4   8898.6   8898.7   8898.8   8898.9   8899.0

 TRANSPORT PROPERTIES (GASES ONLY)
   CONDUCTIVITY IN UNITS OF MILLIWATTS/(CM)(K)

 VISC,MILLIPOISE  0.66597  0.66662  0.66727  0.66791  0.66854  0.66917  0.66979  0.67041

  WITH EQUILIBRIUM REACTIONS

 Cp, KJ/(KG)(K)   26.9424  27.0567  27.1727  27.2905  27.4100  27.5312  27.6543  27.7791
 CONDUCTIVITY     21.9530  21.9975  22.0422  22.0871  22.1321  22.1773  22.2227  22.2683
 PRANDTL NUMBER    0.8173   0.8199   0.8226   0.8253   0.8280   0.8307   0.8335   0.8363

  WITH FROZEN REACTIONS

 Cp, KJ/(KG)(K)   20.6535  20.6545  20.6556  20.6567  20.6578  20.6589  20.6601  20.6613
 CONDUCTIVITY     20.8290  20.8525  20.8759  20.8991  20.9221  20.9450  20.9677  20.9903
 PRANDTL NUMBER    0.6604   0.6603   0.6602   0.6602   0.6601   0.6600   0.6600   0.6599

 MOLE FRACTIONS

 *e-              0.00211  0.00215  0.00220  0.00224  0.00229  0.00234  0.00238  0.00243
 *H               0.99577  0.99568  0.99560  0.99550  0.99541  0.99532  0.99522  0.99512
 *H+              0.00211  0.00215  0.00220  0.00224  0.00229  0.00234  0.00238  0.00243
 *H2              0.00001  0.00001  0.00001  0.00001  0.00001  0.00001  0.00001  0.00001

  * THERMODYNAMIC PROPERTIES FITTED TO 20000.K

 NOTE. WEIGHT FRACTION OF FUEL IN TOTAL FUELS AND OF OXIDANT IN TOTAL OXIDANTS









               THERMODYNAMIC EQUILIBRIUM PROPERTIES AT ASSIGNED

                           TEMPERATURE AND PRESSURE

 CASE =                

             REACTANT                    WT FRACTION      ENERGY      TEMP
                                          (SEE NOTE)     KJ/KG-MOL      K  
             H2                           1.0000000         0.000      0.000

 O/F=    0.00000  %FUEL=100.000000  R,EQ.RATIO= 0.000000  PHI,EQ.RATIO= 0.000000

 THERMODYNAMIC PROPERTIES

 P, BAR           0.00670  0.00670  0.00670  0.00670  0.00740  0.00740  0.00740  0.00740
 T, K             6560.00  6570.00  6580.00  6590.00  6450.00  6460.00  6470.00  6480.00
 RHO, KG/CU M    1.2351-5 1.2331-5 1.2312-5 1.2293-5 1.3882-5 1.3860-5 1.3838-5 1.3816-5
 H, KJ/KG        348981.0 349260.7 349541.7 349824.0 345846.0 346109.7 346374.5 346640.3
 U, KJ/KG        294733.5 294927.7 295123.2 295319.9 292540.2 292719.1 292899.1 293080.0
 G, KJ/KG       -1090530.-1092724.-1094919.-1097115.-1061120.-1063301.-1065483.-1067665.
 S, KJ/(KG)(K)   219.4376 219.4802 219.5229 219.5658 218.1342 218.1750 218.2160 218.2571

 M, (1/n)           1.005    1.005    1.005    1.005    1.006    1.006    1.006    1.006
 (dLV/dLP)t      -1.00125 -1.00128 -1.00130 -1.00133 -1.00096 -1.00098 -1.00100 -1.00102
 (dLV/dLT)p        1.0330   1.0337   1.0343   1.0349   1.0255   1.0260   1.0265   1.0270
 Cp, KJ/(KG)(K)   27.9058  28.0344  28.1648  28.2970  26.3199  26.4239  26.5295  26.6366
 GAMMAs            1.4598   1.4575   1.4552   1.4529   1.4909   1.4888   1.4866   1.4843
 SON VEL,M/SEC     8899.0   8899.0   8899.0   8898.9   8914.9   8915.5   8915.9   8916.4

 TRANSPORT PROPERTIES (GASES ONLY)
   CONDUCTIVITY IN UNITS OF MILLIWATTS/(CM)(K)

 VISC,MILLIPOISE  0.67102  0.67162  0.67222  0.67281  0.66461  0.66530  0.66597  0.66665

  WITH EQUILIBRIUM REACTIONS

 Cp, KJ/(KG)(K)   27.9058  28.0344  28.1648  28.2970  26.3199  26.4239  26.5295  26.6366
 CONDUCTIVITY     22.3141  22.3600  22.4062  22.4525  21.7837  21.8270  21.8706  21.9143
 PRANDTL NUMBER    0.8392   0.8421   0.8450   0.8479   0.8030   0.8054   0.8078   0.8103

  WITH FROZEN REACTIONS

 Cp, KJ/(KG)(K)   20.6625  20.6637  20.6650  20.6663  20.6485  20.6494  20.6504  20.6513
 CONDUCTIVITY     21.0126  21.0348  21.0568  21.0786  20.7704  20.7948  20.8190  20.8431
 PRANDTL NUMBER    0.6598   0.6598   0.6597   0.6596   0.6607   0.6606   0.6606   0.6605

 MOLE FRACTIONS

 *e-              0.00248  0.00253  0.00258  0.00264  0.00188  0.00192  0.00196  0.00201
 *H               0.99503  0.99492  0.99482  0.99472  0.99622  0.99614  0.99606  0.99597
 *H+              0.00248  0.00253  0.00258  0.00264  0.00188  0.00192  0.00196  0.00201
 *H2              0.00001  0.00001  0.00001  0.00001  0.00001  0.00001  0.00001  0.00001

  * THERMODYNAMIC PROPERTIES FITTED TO 20000.K

 NOTE. WEIGHT FRACTION OF FUEL IN TOTAL FUELS AND OF OXIDANT IN TOTAL OXIDANTS









               THERMODYNAMIC EQUILIBRIUM PROPERTIES AT ASSIGNED

                           TEMPERATURE AND PRESSURE

 CASE =                

             REACTANT                    WT FRACTION      ENERGY      TEMP
                                          (SEE NOTE)     KJ/KG-MOL      K  
             H2                           1.0000000         0.000      0.000

 O/F=    0.00000  %FUEL=100.000000  R,EQ.RATIO= 0.000000  PHI,EQ.RATIO= 0.000000

 THERMODYNAMIC PROPERTIES

 P, BAR           0.00740  0.00740  0.00740  0.00740  0.00740  0.00740  0.00740  0.00740
 T, K             6490.00  6500.00  6510.00  6520.00  6530.00  6540.00  6550.00  6560.00
 RHO, KG/CU M    1.3794-5 1.3773-5 1.3751-5 1.3729-5 1.3707-5 1.3686-5 1.3664-5 1.3643-5
 H, KJ/KG        346907.2 347175.2 347444.3 347714.6 347986.0 348258.5 348532.3 348807.2
 U, KJ/KG        293262.0 293445.1 293629.2 293814.4 294000.6 294188.0 294376.6 294566.2
 G, KJ/KG       -1069848.-1072031.-1074215.-1076399.-1078583.-1080768.-1082954.-1085139.
 S, KJ/(KG)(K)   218.2982 218.3395 218.3808 218.4223 218.4639 218.5056 218.5474 218.5894

 M, (1/n)           1.006    1.006    1.006    1.006    1.006    1.006    1.006    1.006
 (dLV/dLP)t      -1.00104 -1.00106 -1.00108 -1.00110 -1.00112 -1.00115 -1.00117 -1.00119
 (dLV/dLT)p        1.0276   1.0281   1.0286   1.0292   1.0297   1.0303   1.0309   1.0315
 Cp, KJ/(KG)(K)   26.7454  26.8558  26.9678  27.0815  27.1969  27.3140  27.4327  27.5533
 GAMMAs            1.4821   1.4799   1.4777   1.4754   1.4732   1.4710   1.4687   1.4664
 SON VEL,M/SEC     8916.8   8917.2   8917.5   8917.8   8918.0   8918.3   8918.4   8918.6

 TRANSPORT PROPERTIES (GASES ONLY)
   CONDUCTIVITY IN UNITS OF MILLIWATTS/(CM)(K)

 VISC,MILLIPOISE  0.66731  0.66797  0.66863  0.66928  0.66992  0.67056  0.67119  0.67182

  WITH EQUILIBRIUM REACTIONS

 Cp, KJ/(KG)(K)   26.7454  26.8558  26.9678  27.0815  27.1969  27.3140  27.4327  27.5533
 CONDUCTIVITY     21.9581  22.0022  22.0464  22.0908  22.1354  22.1801  22.2250  22.2701
 PRANDTL NUMBER    0.8128   0.8153   0.8179   0.8205   0.8231   0.8258   0.8285   0.8312

  WITH FROZEN REACTIONS

 Cp, KJ/(KG)(K)   20.6523  20.6534  20.6544  20.6555  20.6566  20.6577  20.6588  20.6600
 CONDUCTIVITY     20.8670  20.8908  20.9144  20.9379  20.9613  20.9844  21.0074  21.0303
 PRANDTL NUMBER    0.6604   0.6604   0.6603   0.6602   0.6602   0.6601   0.6601   0.6600

 MOLE FRACTIONS

 *e-              0.00205  0.00209  0.00213  0.00218  0.00222  0.00227  0.00231  0.00236
 *H               0.99589  0.99581  0.99572  0.99563  0.99554  0.99545  0.99536  0.99526
 *H+              0.00205  0.00209  0.00213  0.00218  0.00222  0.00227  0.00231  0.00236
 *H2              0.00001  0.00001  0.00001  0.00001  0.00001  0.00001  0.00001  0.00001

  * THERMODYNAMIC PROPERTIES FITTED TO 20000.K

 NOTE. WEIGHT FRACTION OF FUEL IN TOTAL FUELS AND OF OXIDANT IN TOTAL OXIDANTS









               THERMODYNAMIC EQUILIBRIUM PROPERTIES AT ASSIGNED

                           TEMPERATURE AND PRESSURE

 CASE =                

             REACTANT                    WT FRACTION      ENERGY      TEMP
                                          (SEE NOTE)     KJ/KG-MOL      K  
             H2                           1.0000000         0.000      0.000

 O/F=    0.00000  %FUEL=100.000000  R,EQ.RATIO= 0.000000  PHI,EQ.RATIO= 0.000000

 THERMODYNAMIC PROPERTIES

 P, BAR           0.00740  0.00740  0.00740  0.00825  0.00825  0.00825  0.00825  0.00825
 T, K             6570.00  6580.00  6590.00  6450.00  6460.00  6470.00  6480.00  6490.00
 RHO, KG/CU M    1.3621-5 1.3600-5 1.3579-5 1.5478-5 1.5454-5 1.5429-5 1.5405-5 1.5381-5
 H, KJ/KG        349083.3 349360.7 349639.3 345701.9 345962.6 346224.2 346486.9 346750.6
 U, KJ/KG        294757.1 294949.1 295142.3 292401.5 292577.5 292754.5 292932.4 293111.3
 G, KJ/KG       -1087325.-1089512.-1091699.-1055324.-1057496.-1059669.-1061842.-1064015.
 S, KJ/(KG)(K)   218.6315 218.6736 218.7160 217.2133 217.2537 217.2941 217.3347 217.3754

 M, (1/n)           1.006    1.005    1.005    1.006    1.006    1.006    1.006    1.006
 (dLV/dLP)t      -1.00122 -1.00124 -1.00127 -1.00091 -1.00093 -1.00095 -1.00097 -1.00098
 (dLV/dLT)p        1.0321   1.0327   1.0333   1.0242   1.0247   1.0252   1.0256   1.0261
 Cp, KJ/(KG)(K)   27.6756  27.7996  27.9255  26.0193  26.1177  26.2177  26.3191  26.4221
 GAMMAs            1.4642   1.4619   1.4596   1.4976   1.4954   1.4933   1.4911   1.4889
 SON VEL,M/SEC     8918.7   8918.8   8918.9   8934.3   8934.9   8935.6   8936.2   8936.8

 TRANSPORT PROPERTIES (GASES ONLY)
   CONDUCTIVITY IN UNITS OF MILLIWATTS/(CM)(K)

 VISC,MILLIPOISE  0.67244  0.67305  0.67366  0.66527  0.66597  0.66666  0.66735  0.66803

  WITH EQUILIBRIUM REACTIONS

 Cp, KJ/(KG)(K)   27.6756  27.7996  27.9255  26.0193  26.1177  26.2177  26.3191  26.4221
 CONDUCTIVITY     22.3154  22.3609  22.4065  21.7453  21.7880  21.8309  21.8739  21.9171
 PRANDTL NUMBER    0.8340   0.8368   0.8396   0.7960   0.7983   0.8006   0.8030   0.8053

  WITH FROZEN REACTIONS

 Cp, KJ/(KG)(K)   20.6612  20.6624  20.6636  20.6464  20.6473  20.6482  20.6492  20.6501
 CONDUCTIVITY     21.0530  21.0755  21.0978  20.7837  20.8084  20.8330  20.8575  20.8819
 PRANDTL NUMBER    0.6599   0.6599   0.6598   0.6609   0.6608   0.6607   0.6607   0.6606

 MOLE FRACTIONS

 *e-              0.00241  0.00246  0.00251  0.00178  0.00182  0.00186  0.00190  0.00194
 *H               0.99517  0.99507  0.99497  0.99641  0.99634  0.99626  0.99619  0.99611
 *H+              0.00241  0.00246  0.00251  0.00178  0.00182  0.00186  0.00190  0.00194
 *H2              0.00001  0.00001  0.00001  0.00002  0.00002  0.00002  0.00002  0.00002

  * THERMODYNAMIC PROPERTIES FITTED TO 20000.K

 NOTE. WEIGHT FRACTION OF FUEL IN TOTAL FUELS AND OF OXIDANT IN TOTAL OXIDANTS









               THERMODYNAMIC EQUILIBRIUM PROPERTIES AT ASSIGNED

                           TEMPERATURE AND PRESSURE

 CASE =                

             REACTANT                    WT FRACTION      ENERGY      TEMP
                                          (SEE NOTE)     KJ/KG-MOL      K  
             H2                           1.0000000         0.000      0.000

 O/F=    0.00000  %FUEL=100.000000  R,EQ.RATIO= 0.000000  PHI,EQ.RATIO= 0.000000

 THERMODYNAMIC PROPERTIES

 P, BAR           0.00825  0.00825  0.00825  0.00825  0.00825  0.00825  0.00825  0.00825
 T, K             6500.00  6510.00  6520.00  6530.00  6540.00  6550.00  6560.00  6570.00
 RHO, KG/CU M    1.5356-5 1.5332-5 1.5308-5 1.5284-5 1.5260-5 1.5236-5 1.5212-5 1.5188-5
 H, KJ/KG        347015.4 347281.2 347548.0 347816.0 348085.0 348355.2 348626.5 348899.0
 U, KJ/KG        293291.2 293472.2 293654.1 293837.1 294021.1 294206.2 294392.4 294579.7
 G, KJ/KG       -1066189.-1068364.-1070539.-1072714.-1074889.-1077065.-1079242.-1081419.
 S, KJ/(KG)(K)   217.4161 217.4570 217.4979 217.5390 217.5802 217.6215 217.6629 217.7044

 M, (1/n)           1.006    1.006    1.006    1.006    1.006    1.006    1.006    1.006
 (dLV/dLP)t      -1.00100 -1.00103 -1.00105 -1.00107 -1.00109 -1.00111 -1.00113 -1.00116
 (dLV/dLT)p        1.0266   1.0271   1.0277   1.0282   1.0287   1.0293   1.0298   1.0304
 Cp, KJ/(KG)(K)   26.5267  26.6328  26.7404  26.8497  26.9606  27.0731  27.1872  27.3030
 GAMMAs            1.4868   1.4846   1.4824   1.4802   1.4780   1.4758   1.4736   1.4713
 SON VEL,M/SEC     8937.3   8937.8   8938.2   8938.6   8939.0   8939.3   8939.6   8939.9

 TRANSPORT PROPERTIES (GASES ONLY)
   CONDUCTIVITY IN UNITS OF MILLIWATTS/(CM)(K)

 VISC,MILLIPOISE  0.66871  0.66938  0.67004  0.67070  0.67136  0.67201  0.67265  0.67329

  WITH EQUILIBRIUM REACTIONS

 Cp, KJ/(KG)(K)   26.5267  26.6328  26.7404  26.8497  26.9606  27.0731  27.1872  27.3030
 CONDUCTIVITY     21.9605  22.0041  22.0478  22.0917  22.1357  22.1799  22.2243  22.2689
 PRANDTL NUMBER    0.8077   0.8102   0.8127   0.8152   0.8177   0.8203   0.8229   0.8255

  WITH FROZEN REACTIONS

 Cp, KJ/(KG)(K)   20.6511  20.6521  20.6531  20.6541  20.6552  20.6563  20.6574  20.6586
 CONDUCTIVITY     20.9061  20.9302  20.9541  20.9779  21.0015  21.0250  21.0483  21.0715
 PRANDTL NUMBER    0.6605   0.6605   0.6604   0.6604   0.6603   0.6602   0.6602   0.6601

 MOLE FRACTIONS

 *e-              0.00198  0.00202  0.00206  0.00211  0.00215  0.00219  0.00224  0.00228
 *H               0.99603  0.99594  0.99586  0.99578  0.99569  0.99560  0.99551  0.99542
 *H+              0.00198  0.00202  0.00206  0.00211  0.00215  0.00219  0.00224  0.00228
 *H2              0.00001  0.00001  0.00001  0.00001  0.00001  0.00001  0.00001  0.00001

  * THERMODYNAMIC PROPERTIES FITTED TO 20000.K

 NOTE. WEIGHT FRACTION OF FUEL IN TOTAL FUELS AND OF OXIDANT IN TOTAL OXIDANTS









               THERMODYNAMIC EQUILIBRIUM PROPERTIES AT ASSIGNED

                           TEMPERATURE AND PRESSURE

 CASE =                

             REACTANT                    WT FRACTION      ENERGY      TEMP
                                          (SEE NOTE)     KJ/KG-MOL      K  
             H2                           1.0000000         0.000      0.000

 O/F=    0.00000  %FUEL=100.000000  R,EQ.RATIO= 0.000000  PHI,EQ.RATIO= 0.000000

 THERMODYNAMIC PROPERTIES

 P, BAR           0.00825  0.00825  0.00910  0.00910  0.00910  0.00910  0.00910  0.00910
 T, K             6580.00  6590.00  6450.00  6460.00  6470.00  6480.00  6490.00  6500.00
 RHO, KG/CU M    1.5164-5 1.5140-5 1.7075-5 1.7047-5 1.7021-5 1.6994-5 1.6967-5 1.6940-5
 H, KJ/KG        349172.6 349447.4 345578.4 345836.5 346095.5 346355.5 346616.4 346878.4
 U, KJ/KG        294768.1 294957.6 292282.6 292456.1 292630.6 292805.9 292982.2 293159.4
 G, KJ/KG       -1083596.-1085774.-1050097.-1052261.-1054426.-1056591.-1058756.-1060921.
 S, KJ/(KG)(K)   217.7460 217.7877 216.3838 216.4238 216.4639 216.5040 216.5443 216.5846

 M, (1/n)           1.006    1.006    1.006    1.006    1.006    1.006    1.006    1.006
 (dLV/dLP)t      -1.00118 -1.00120 -1.00087 -1.00089 -1.00090 -1.00092 -1.00094 -1.00096
 (dLV/dLT)p        1.0310   1.0315   1.0231   1.0235   1.0240   1.0244   1.0249   1.0254
 Cp, KJ/(KG)(K)   27.4205  27.5397  25.7619  25.8557  25.9508  26.0474  26.1454  26.2450
 GAMMAs            1.4691   1.4669   1.5034   1.5013   1.4992   1.4971   1.4950   1.4928
 SON VEL,M/SEC     8940.1   8940.3   8951.3   8952.1   8952.9   8953.7   8954.4   8955.0

 TRANSPORT PROPERTIES (GASES ONLY)
   CONDUCTIVITY IN UNITS OF MILLIWATTS/(CM)(K)

 VISC,MILLIPOISE  0.67392  0.67455  0.66584  0.66655  0.66725  0.66795  0.66864  0.66933

  WITH EQUILIBRIUM REACTIONS

 Cp, KJ/(KG)(K)   27.4205  27.5397  25.7619  25.8557  25.9508  26.0474  26.1454  26.2450
 CONDUCTIVITY     22.3136  22.3585  21.7124  21.7545  21.7969  21.8393  21.8820  21.9248
 PRANDTL NUMBER    0.8282   0.8309   0.7900   0.7922   0.7944   0.7967   0.7989   0.8012

  WITH FROZEN REACTIONS

 Cp, KJ/(KG)(K)   20.6597  20.6609  20.6447  20.6455  20.6464  20.6473  20.6482  20.6491
 CONDUCTIVITY     21.0945  21.1174  20.7948  20.8199  20.8448  20.8697  20.8944  20.9190
 PRANDTL NUMBER    0.6600   0.6600   0.6610   0.6610   0.6609   0.6608   0.6608   0.6607

 MOLE FRACTIONS

 *e-              0.00233  0.00238  0.00170  0.00174  0.00177  0.00181  0.00185  0.00189
 *H               0.99533  0.99523  0.99658  0.99651  0.99644  0.99637  0.99629  0.99621
 *H+              0.00233  0.00238  0.00170  0.00174  0.00177  0.00181  0.00185  0.00189
 *H2              0.00001  0.00001  0.00002  0.00002  0.00002  0.00002  0.00002  0.00002

  * THERMODYNAMIC PROPERTIES FITTED TO 20000.K

 NOTE. WEIGHT FRACTION OF FUEL IN TOTAL FUELS AND OF OXIDANT IN TOTAL OXIDANTS









               THERMODYNAMIC EQUILIBRIUM PROPERTIES AT ASSIGNED

                           TEMPERATURE AND PRESSURE

 CASE =                

             REACTANT                    WT FRACTION      ENERGY      TEMP
                                          (SEE NOTE)     KJ/KG-MOL      K  
             H2                           1.0000000         0.000      0.000

 O/F=    0.00000  %FUEL=100.000000  R,EQ.RATIO= 0.000000  PHI,EQ.RATIO= 0.000000

 THERMODYNAMIC PROPERTIES

 P, BAR           0.00910  0.00910  0.00910  0.00910  0.00910  0.00910  0.00910  0.00910
 T, K             6510.00  6520.00  6530.00  6540.00  6550.00  6560.00  6570.00  6580.00
 RHO, KG/CU M    1.6913-5 1.6887-5 1.6860-5 1.6834-5 1.6807-5 1.6781-5 1.6755-5 1.6728-5
 H, KJ/KG        347141.3 347405.3 347670.3 347936.4 348203.5 348471.7 348741.0 349011.4
 U, KJ/KG        293337.6 293516.8 293696.9 293878.1 294060.3 294243.5 294427.7 294613.0
 G, KJ/KG       -1063087.-1065254.-1067421.-1069588.-1071756.-1073924.-1076092.-1078261.
 S, KJ/(KG)(K)   216.6250 216.6655 216.7061 216.7469 216.7877 216.8286 216.8696 216.9107

 M, (1/n)           1.006    1.006    1.006    1.006    1.006    1.006    1.006    1.006
 (dLV/dLP)t      -1.00098 -1.00100 -1.00102 -1.00104 -1.00106 -1.00108 -1.00110 -1.00112
 (dLV/dLT)p        1.0259   1.0264   1.0269   1.0274   1.0279   1.0284   1.0290   1.0295
 Cp, KJ/(KG)(K)   26.3460  26.4485  26.5525  26.6580  26.7651  26.8738  26.9841  27.0959
 GAMMAs            1.4907   1.4885   1.4864   1.4842   1.4820   1.4798   1.4777   1.4755
 SON VEL,M/SEC     8955.7   8956.3   8956.8   8957.3   8957.8   8958.2   8958.6   8959.0

 TRANSPORT PROPERTIES (GASES ONLY)
   CONDUCTIVITY IN UNITS OF MILLIWATTS/(CM)(K)

 VISC,MILLIPOISE  0.67002  0.67070  0.67137  0.67204  0.67271  0.67337  0.67402  0.67467

  WITH EQUILIBRIUM REACTIONS

 Cp, KJ/(KG)(K)   26.3460  26.4485  26.5525  26.6580  26.7651  26.8738  26.9841  27.0959
 CONDUCTIVITY     21.9678  22.0109  22.0542  22.0976  22.1413  22.1850  22.2290  22.2731
 PRANDTL NUMBER    0.8036   0.8059   0.8083   0.8107   0.8132   0.8157   0.8182   0.8208

  WITH FROZEN REACTIONS

 Cp, KJ/(KG)(K)   20.6501  20.6511  20.6521  20.6531  20.6541  20.6552  20.6563  20.6574
 CONDUCTIVITY     20.9434  20.9677  20.9919  21.0159  21.0398  21.0636  21.0872  21.1106
 PRANDTL NUMBER    0.6606   0.6606   0.6605   0.6604   0.6604   0.6603   0.6602   0.6602

 MOLE FRACTIONS

 *e-              0.00192  0.00196  0.00200  0.00205  0.00209  0.00213  0.00217  0.00222
 *H               0.99614  0.99606  0.99598  0.99589  0.99581  0.99572  0.99564  0.99555
 *H+              0.00192  0.00196  0.00200  0.00205  0.00209  0.00213  0.00217  0.00222
 *H2              0.00002  0.00002  0.00002  0.00002  0.00002  0.00002  0.00002  0.00001

  * THERMODYNAMIC PROPERTIES FITTED TO 20000.K

 NOTE. WEIGHT FRACTION OF FUEL IN TOTAL FUELS AND OF OXIDANT IN TOTAL OXIDANTS









               THERMODYNAMIC EQUILIBRIUM PROPERTIES AT ASSIGNED

                           TEMPERATURE AND PRESSURE

 CASE =                

             REACTANT                    WT FRACTION      ENERGY      TEMP
                                          (SEE NOTE)     KJ/KG-MOL      K  
             H2                           1.0000000         0.000      0.000

 O/F=    0.00000  %FUEL=100.000000  R,EQ.RATIO= 0.000000  PHI,EQ.RATIO= 0.000000

 THERMODYNAMIC PROPERTIES

 P, BAR           0.00910  0.01000  0.01000  0.01000  0.01000  0.01000  0.01000  0.01000
 T, K             6590.00  6450.00  6460.00  6470.00  6480.00  6490.00  6500.00  6510.00
 RHO, KG/CU M    1.6702-5 1.8765-5 1.8735-5 1.8705-5 1.8676-5 1.8646-5 1.8617-5 1.8588-5
 H, KJ/KG        349282.9 345465.0 345720.7 345977.4 346234.9 346493.3 346752.7 347013.1
 U, KJ/KG        294799.4 292173.5 292344.8 292516.9 292689.9 292863.7 293038.5 293214.2
 G, KJ/KG       -1080431.-1045071.-1047227.-1049384.-1051540.-1053698.-1055855.-1058013.
 S, KJ/(KG)(K)   216.9520 215.5870 215.6266 215.6663 215.7061 215.7459 215.7859 215.8259

 M, (1/n)           1.006    1.006    1.006    1.006    1.006    1.006    1.006    1.006
 (dLV/dLP)t      -1.00115 -1.00083 -1.00085 -1.00086 -1.00088 -1.00090 -1.00092 -1.00094
 (dLV/dLT)p        1.0300   1.0220   1.0225   1.0229   1.0233   1.0238   1.0242   1.0247
 Cp, KJ/(KG)(K)   27.2094  25.5262  25.6156  25.7064  25.7985  25.8920  25.9869  26.0832
 GAMMAs            1.4733   1.5089   1.5068   1.5048   1.5027   1.5006   1.4985   1.4964
 SON VEL,M/SEC     8959.3   8967.3   8968.2   8969.2   8970.1   8970.9   8971.8   8972.5

 TRANSPORT PROPERTIES (GASES ONLY)
   CONDUCTIVITY IN UNITS OF MILLIWATTS/(CM)(K)

 VISC,MILLIPOISE  0.67531  0.66635  0.66707  0.66779  0.66850  0.66921  0.66991  0.67061

  WITH EQUILIBRIUM REACTIONS

 Cp, KJ/(KG)(K)   27.2094  25.5262  25.6156  25.7064  25.7985  25.8920  25.9869  26.0832
 CONDUCTIVITY     22.3174  21.6822  21.7239  21.7657  21.8076  21.8498  21.8920  21.9345
 PRANDTL NUMBER    0.8233   0.7845   0.7866   0.7887   0.7908   0.7930   0.7952   0.7975

  WITH FROZEN REACTIONS

 Cp, KJ/(KG)(K)   20.6585  20.6431  20.6439  20.6447  20.6456  20.6464  20.6473  20.6482
 CONDUCTIVITY     21.1339  20.8048  20.8302  20.8555  20.8806  20.9057  20.9306  20.9554
 PRANDTL NUMBER    0.6601   0.6612   0.6611   0.6610   0.6610   0.6609   0.6608   0.6608

 MOLE FRACTIONS

 *e-              0.00226  0.00162  0.00166  0.00169  0.00173  0.00176  0.00180  0.00184
 *H               0.99546  0.99674  0.99667  0.99660  0.99653  0.99646  0.99638  0.99631
 *H+              0.00226  0.00162  0.00166  0.00169  0.00173  0.00176  0.00180  0.00184
 *H2              0.00001  0.00002  0.00002  0.00002  0.00002  0.00002  0.00002  0.00002

  * THERMODYNAMIC PROPERTIES FITTED TO 20000.K

 NOTE. WEIGHT FRACTION OF FUEL IN TOTAL FUELS AND OF OXIDANT IN TOTAL OXIDANTS









               THERMODYNAMIC EQUILIBRIUM PROPERTIES AT ASSIGNED

                           TEMPERATURE AND PRESSURE

 CASE =                

             REACTANT                    WT FRACTION      ENERGY      TEMP
                                          (SEE NOTE)     KJ/KG-MOL      K  
             H2                           1.0000000         0.000      0.000

 O/F=    0.00000  %FUEL=100.000000  R,EQ.RATIO= 0.000000  PHI,EQ.RATIO= 0.000000

 THERMODYNAMIC PROPERTIES

 P, BAR           0.01000  0.01000  0.01000  0.01000  0.01000  0.01000  0.01000  0.01000
 T, K             6520.00  6530.00  6540.00  6550.00  6560.00  6570.00  6580.00  6590.00
 RHO, KG/CU M    1.8559-5 1.8529-5 1.8500-5 1.8471-5 1.8442-5 1.8414-5 1.8385-5 1.8356-5
 H, KJ/KG        347274.4 347536.7 347800.0 348064.3 348329.7 348596.1 348863.5 349132.0
 U, KJ/KG        293390.8 293568.4 293746.9 293926.4 294106.9 294288.3 294470.8 294654.3
 G, KJ/KG       -1060172.-1062331.-1064490.-1066650.-1068810.-1070970.-1073131.-1075292.
 S, KJ/(KG)(K)   215.8660 215.9062 215.9465 215.9869 216.0274 216.0679 216.1086 216.1494

 M, (1/n)           1.006    1.006    1.006    1.006    1.006    1.006    1.006    1.006
 (dLV/dLP)t      -1.00095 -1.00097 -1.00099 -1.00101 -1.00103 -1.00105 -1.00107 -1.00110
 (dLV/dLT)p        1.0252   1.0256   1.0261   1.0266   1.0271   1.0276   1.0282   1.0287
 Cp, KJ/(KG)(K)   26.1810  26.2802  26.3809  26.4830  26.5867  26.6919  26.7986  26.9068
 GAMMAs            1.4943   1.4922   1.4901   1.4879   1.4858   1.4836   1.4815   1.4793
 SON VEL,M/SEC     8973.2   8973.9   8974.6   8975.2   8975.7   8976.3   8976.8   8977.2

 TRANSPORT PROPERTIES (GASES ONLY)
   CONDUCTIVITY IN UNITS OF MILLIWATTS/(CM)(K)

 VISC,MILLIPOISE  0.67130  0.67199  0.67267  0.67335  0.67402  0.67469  0.67535  0.67601

  WITH EQUILIBRIUM REACTIONS

 Cp, KJ/(KG)(K)   26.1810  26.2802  26.3809  26.4830  26.5867  26.6919  26.7986  26.9068
 CONDUCTIVITY     21.9770  22.0198  22.0627  22.1057  22.1490  22.1923  22.2359  22.2796
 PRANDTL NUMBER    0.7997   0.8020   0.8043   0.8067   0.8091   0.8115   0.8139   0.8164

  WITH FROZEN REACTIONS

 Cp, KJ/(KG)(K)   20.6492  20.6502  20.6511  20.6521  20.6532  20.6542  20.6553  20.6564
 CONDUCTIVITY     20.9800  21.0045  21.0289  21.0532  21.0773  21.1013  21.1252  21.1489
 PRANDTL NUMBER    0.6607   0.6607   0.6606   0.6605   0.6605   0.6604   0.6603   0.6603

 MOLE FRACTIONS

 *e-              0.00187  0.00191  0.00195  0.00199  0.00203  0.00207  0.00212  0.00216
 *H               0.99623  0.99616  0.99608  0.99600  0.99592  0.99584  0.99575  0.99567
 *H+              0.00187  0.00191  0.00195  0.00199  0.00203  0.00207  0.00212  0.00216
 *H2              0.00002  0.00002  0.00002  0.00002  0.00002  0.00002  0.00002  0.00002

  * THERMODYNAMIC PROPERTIES FITTED TO 20000.K

 NOTE. WEIGHT FRACTION OF FUEL IN TOTAL FUELS AND OF OXIDANT IN TOTAL OXIDANTS









               THERMODYNAMIC EQUILIBRIUM PROPERTIES AT ASSIGNED

                           TEMPERATURE AND PRESSURE

 CASE =                

             REACTANT                    WT FRACTION      ENERGY      TEMP
                                          (SEE NOTE)     KJ/KG-MOL      K  
             H2                           1.0000000         0.000      0.000

 O/F=    0.00000  %FUEL=100.000000  R,EQ.RATIO= 0.000000  PHI,EQ.RATIO= 0.000000

 THERMODYNAMIC PROPERTIES

 P, BAR           0.01100  0.01100  0.01100  0.01100  0.01100  0.01100  0.01100  0.01100
 T, K             6450.00  6460.00  6470.00  6480.00  6490.00  6500.00  6510.00  6520.00
 RHO, KG/CU M    2.0643-5 2.0610-5 2.0578-5 2.0545-5 2.0513-5 2.0480-5 2.0448-5 2.0416-5
 H, KJ/KG        345355.7 345609.1 345863.4 346118.5 346374.6 346631.5 346889.3 347148.1
 U, KJ/KG        292068.3 292237.4 292407.2 292577.9 292749.5 292921.9 293095.2 293269.3
 G, KJ/KG       -1039992.-1042140.-1044289.-1046437.-1048587.-1050736.-1052886.-1055036.
 S, KJ/(KG)(K)   214.7826 214.8219 214.8612 214.9006 214.9401 214.9796 215.0193 215.0590

 M, (1/n)           1.006    1.006    1.006    1.006    1.006    1.006    1.006    1.006
 (dLV/dLP)t      -1.00079 -1.00081 -1.00083 -1.00084 -1.00086 -1.00088 -1.00090 -1.00091
 (dLV/dLT)p        1.0210   1.0214   1.0219   1.0223   1.0227   1.0231   1.0236   1.0240
 Cp, KJ/(KG)(K)   25.2992  25.3844  25.4709  25.5587  25.6478  25.7383  25.8301  25.9233
 GAMMAs            1.5143   1.5123   1.5103   1.5083   1.5062   1.5042   1.5021   1.5001
 SON VEL,M/SEC     8983.0   8984.2   8985.3   8986.3   8987.3   8988.3   8989.2   8990.1

 TRANSPORT PROPERTIES (GASES ONLY)
   CONDUCTIVITY IN UNITS OF MILLIWATTS/(CM)(K)

 VISC,MILLIPOISE  0.66685  0.66759  0.66831  0.66904  0.66976  0.67047  0.67118  0.67189

  WITH EQUILIBRIUM REACTIONS

 Cp, KJ/(KG)(K)   25.2992  25.3844  25.4709  25.5587  25.6478  25.7383  25.8301  25.9233
 CONDUCTIVITY     21.6532  21.6944  21.7357  21.7771  21.8187  21.8604  21.9023  21.9444
 PRANDTL NUMBER    0.7791   0.7811   0.7832   0.7852   0.7873   0.7894   0.7915   0.7937

  WITH FROZEN REACTIONS

 Cp, KJ/(KG)(K)   20.6415  20.6423  20.6431  20.6439  20.6447  20.6456  20.6465  20.6474
 CONDUCTIVITY     20.8143  20.8400  20.8656  20.8910  20.9164  20.9416  20.9667  20.9917
 PRANDTL NUMBER    0.6613   0.6613   0.6612   0.6611   0.6611   0.6610   0.6609   0.6609

 MOLE FRACTIONS

 *e-              0.00155  0.00158  0.00161  0.00165  0.00168  0.00171  0.00175  0.00179
 *H               0.99689  0.99682  0.99676  0.99669  0.99662  0.99655  0.99648  0.99641
 *H+              0.00155  0.00158  0.00161  0.00165  0.00168  0.00171  0.00175  0.00179
 *H2              0.00002  0.00002  0.00002  0.00002  0.00002  0.00002  0.00002  0.00002

  * THERMODYNAMIC PROPERTIES FITTED TO 20000.K

 NOTE. WEIGHT FRACTION OF FUEL IN TOTAL FUELS AND OF OXIDANT IN TOTAL OXIDANTS









               THERMODYNAMIC EQUILIBRIUM PROPERTIES AT ASSIGNED

                           TEMPERATURE AND PRESSURE

 CASE =                

             REACTANT                    WT FRACTION      ENERGY      TEMP
                                          (SEE NOTE)     KJ/KG-MOL      K  
             H2                           1.0000000         0.000      0.000

 O/F=    0.00000  %FUEL=100.000000  R,EQ.RATIO= 0.000000  PHI,EQ.RATIO= 0.000000

 THERMODYNAMIC PROPERTIES

 P, BAR           0.01100  0.01100  0.01100  0.01100  0.01100  0.01100  0.01100  0.01200
 T, K             6530.00  6540.00  6550.00  6560.00  6570.00  6580.00  6590.00  6450.00
 RHO, KG/CU M    2.0384-5 2.0352-5 2.0320-5 2.0289-5 2.0257-5 2.0225-5 2.0194-5 2.2521-5
 H, KJ/KG        347407.8 347668.5 347930.1 348192.7 348456.3 348720.9 348986.5 345260.2
 U, KJ/KG        293444.4 293620.4 293797.3 293975.1 294153.9 294333.6 294514.4 291976.4
 G, KJ/KG       -1057187.-1059338.-1061490.-1063642.-1065794.-1067947.-1070100.-1035356.
 S, KJ/(KG)(K)   215.0988 215.1387 215.1786 215.2187 215.2589 215.2991 215.3394 214.0490

 M, (1/n)           1.006    1.006    1.006    1.006    1.006    1.006    1.006    1.006
 (dLV/dLP)t      -1.00093 -1.00095 -1.00097 -1.00099 -1.00101 -1.00103 -1.00105 -1.00076
 (dLV/dLT)p        1.0245   1.0249   1.0254   1.0259   1.0264   1.0269   1.0274   1.0202
 Cp, KJ/(KG)(K)   26.0179  26.1139  26.2113  26.3101  26.4103  26.5121  26.6153  25.1013
 GAMMAs            1.4980   1.4959   1.4938   1.4917   1.4896   1.4875   1.4853   1.5192
 SON VEL,M/SEC     8990.9   8991.7   8992.4   8993.1   8993.8   8994.4   8995.0   8997.1

 TRANSPORT PROPERTIES (GASES ONLY)
   CONDUCTIVITY IN UNITS OF MILLIWATTS/(CM)(K)

 VISC,MILLIPOISE  0.67259  0.67328  0.67397  0.67466  0.67534  0.67602  0.67669  0.66729

  WITH EQUILIBRIUM REACTIONS

 Cp, KJ/(KG)(K)   26.0179  26.1139  26.2113  26.3101  26.4103  26.5121  26.6153  25.1013
 CONDUCTIVITY     21.9866  22.0290  22.0715  22.1141  22.1570  22.1999  22.2431  21.6279
 PRANDTL NUMBER    0.7959   0.7981   0.8004   0.8027   0.8050   0.8073   0.8097   0.7745

  WITH FROZEN REACTIONS

 Cp, KJ/(KG)(K)   20.6483  20.6493  20.6502  20.6512  20.6522  20.6533  20.6543  20.6401
 CONDUCTIVITY     21.0166  21.0413  21.0659  21.0904  21.1148  21.1390  21.1631  20.8225
 PRANDTL NUMBER    0.6608   0.6607   0.6607   0.6606   0.6605   0.6605   0.6604   0.6614

 MOLE FRACTIONS

 *e-              0.00182  0.00186  0.00190  0.00194  0.00198  0.00202  0.00206  0.00148
 *H               0.99633  0.99626  0.99618  0.99611  0.99603  0.99595  0.99587  0.99702
 *H+              0.00182  0.00186  0.00190  0.00194  0.00198  0.00202  0.00206  0.00148
 *H2              0.00002  0.00002  0.00002  0.00002  0.00002  0.00002  0.00002  0.00002

  * THERMODYNAMIC PROPERTIES FITTED TO 20000.K

 NOTE. WEIGHT FRACTION OF FUEL IN TOTAL FUELS AND OF OXIDANT IN TOTAL OXIDANTS









               THERMODYNAMIC EQUILIBRIUM PROPERTIES AT ASSIGNED

                           TEMPERATURE AND PRESSURE

 CASE =                

             REACTANT                    WT FRACTION      ENERGY      TEMP
                                          (SEE NOTE)     KJ/KG-MOL      K  
             H2                           1.0000000         0.000      0.000

 O/F=    0.00000  %FUEL=100.000000  R,EQ.RATIO= 0.000000  PHI,EQ.RATIO= 0.000000

 THERMODYNAMIC PROPERTIES

 P, BAR           0.01200  0.01200  0.01200  0.01200  0.01200  0.01200  0.01200  0.01200
 T, K             6460.00  6470.00  6480.00  6490.00  6500.00  6510.00  6520.00  6530.00
 RHO, KG/CU M    2.2485-5 2.2450-5 2.2415-5 2.2379-5 2.2344-5 2.2309-5 2.2274-5 2.2239-5
 H, KJ/KG        345511.6 345763.9 346016.9 346270.9 346525.6 346781.3 347037.8 347295.3
 U, KJ/KG        292143.6 292311.5 292480.2 292649.7 292820.0 292991.2 293163.3 293336.1
 G, KJ/KG       -1037496.-1039637.-1041779.-1043921.-1046063.-1048206.-1050349.-1052492.
 S, KJ/(KG)(K)   214.0879 214.1269 214.1660 214.2052 214.2444 214.2837 214.3231 214.3625

 M, (1/n)           1.006    1.006    1.006    1.006    1.006    1.006    1.006    1.006
 (dLV/dLP)t      -1.00078 -1.00079 -1.00081 -1.00083 -1.00084 -1.00086 -1.00088 -1.00089
 (dLV/dLT)p        1.0206   1.0209   1.0213   1.0218   1.0222   1.0226   1.0230   1.0235
 Cp, KJ/(KG)(K)   25.1829  25.2657  25.3497  25.4350  25.5216  25.6095  25.6987  25.7893
 GAMMAs            1.5172   1.5152   1.5132   1.5112   1.5092   1.5072   1.5052   1.5032
 SON VEL,M/SEC     8998.4   8999.6   9000.8   9001.9   9003.0   9004.1   9005.1   9006.0

 TRANSPORT PROPERTIES (GASES ONLY)
   CONDUCTIVITY IN UNITS OF MILLIWATTS/(CM)(K)

 VISC,MILLIPOISE  0.66803  0.66877  0.66950  0.67023  0.67096  0.67168  0.67240  0.67311

  WITH EQUILIBRIUM REACTIONS

 Cp, KJ/(KG)(K)   25.1829  25.2657  25.3497  25.4350  25.5216  25.6095  25.6987  25.7893
 CONDUCTIVITY     21.6686  21.7095  21.7505  21.7916  21.8329  21.8744  21.9159  21.9577
 PRANDTL NUMBER    0.7764   0.7783   0.7803   0.7823   0.7843   0.7864   0.7885   0.7906

  WITH FROZEN REACTIONS

 Cp, KJ/(KG)(K)   20.6409  20.6417  20.6424  20.6433  20.6441  20.6449  20.6458  20.6467
 CONDUCTIVITY     20.8484  20.8742  20.8999  20.9255  20.9510  20.9764  21.0017  21.0269
 PRANDTL NUMBER    0.6614   0.6613   0.6613   0.6612   0.6611   0.6611   0.6610   0.6609

 MOLE FRACTIONS

 *e-              0.00151  0.00154  0.00158  0.00161  0.00164  0.00168  0.00171  0.00175
 *H               0.99695  0.99689  0.99683  0.99676  0.99669  0.99663  0.99656  0.99649
 *H+              0.00151  0.00154  0.00158  0.00161  0.00164  0.00168  0.00171  0.00175
 *H2              0.00002  0.00002  0.00002  0.00002  0.00002  0.00002  0.00002  0.00002

  * THERMODYNAMIC PROPERTIES FITTED TO 20000.K

 NOTE. WEIGHT FRACTION OF FUEL IN TOTAL FUELS AND OF OXIDANT IN TOTAL OXIDANTS









               THERMODYNAMIC EQUILIBRIUM PROPERTIES AT ASSIGNED

                           TEMPERATURE AND PRESSURE

 CASE =                

             REACTANT                    WT FRACTION      ENERGY      TEMP
                                          (SEE NOTE)     KJ/KG-MOL      K  
             H2                           1.0000000         0.000      0.000

 O/F=    0.00000  %FUEL=100.000000  R,EQ.RATIO= 0.000000  PHI,EQ.RATIO= 0.000000

 THERMODYNAMIC PROPERTIES

 P, BAR           0.01200  0.01200  0.01200  0.01200  0.01200  0.01200  0.01320  0.01320
 T, K             6540.00  6550.00  6560.00  6570.00  6580.00  6590.00  6450.00  6460.00
 RHO, KG/CU M    2.2204-5 2.2170-5 2.2135-5 2.2100-5 2.2066-5 2.2032-5 2.4775-5 2.4736-5
 H, KJ/KG        347553.6 347812.9 348073.1 348334.3 348596.4 348859.5 345160.1 345409.5
 U, KJ/KG        293509.9 293684.5 293860.1 294036.5 294213.9 294392.2 291880.2 292045.3
 G, KJ/KG       -1054636.-1056780.-1058925.-1061070.-1063215.-1065361.-1030277.-1032410.
 S, KJ/(KG)(K)   214.4021 214.4417 214.4814 214.5212 214.5610 214.6010 213.2461 213.2847

 M, (1/n)           1.006    1.006    1.006    1.006    1.006    1.006    1.007    1.007
 (dLV/dLP)t      -1.00091 -1.00093 -1.00095 -1.00097 -1.00099 -1.00100 -1.00073 -1.00075
 (dLV/dLT)p        1.0239   1.0244   1.0248   1.0253   1.0257   1.0262   1.0193   1.0196
 Cp, KJ/(KG)(K)   25.8811  25.9744  26.0690  26.1649  26.2623  26.3611  24.8944  24.9721
 GAMMAs            1.5011   1.4990   1.4970   1.4949   1.4928   1.4907   1.5244   1.5224
 SON VEL,M/SEC     9007.0   9007.8   9008.7   9009.5   9010.2   9010.9   9012.1   9013.6

 TRANSPORT PROPERTIES (GASES ONLY)
   CONDUCTIVITY IN UNITS OF MILLIWATTS/(CM)(K)

 VISC,MILLIPOISE  0.67381  0.67452  0.67522  0.67591  0.67660  0.67728  0.66775  0.66850

  WITH EQUILIBRIUM REACTIONS

 Cp, KJ/(KG)(K)   25.8811  25.9744  26.0690  26.1649  26.2623  26.3611  24.8944  24.9721
 CONDUCTIVITY     21.9996  22.0416  22.0838  22.1261  22.1686  22.2112  21.6016  21.6418
 PRANDTL NUMBER    0.7927   0.7949   0.7971   0.7993   0.8015   0.8038   0.7695   0.7714

  WITH FROZEN REACTIONS

 Cp, KJ/(KG)(K)   20.6476  20.6486  20.6495  20.6505  20.6515  20.6525  20.6387  20.6394
 CONDUCTIVITY     21.0519  21.0768  21.1016  21.1263  21.1509  21.1753  20.8309  20.8571
 PRANDTL NUMBER    0.6609   0.6608   0.6607   0.6607   0.6606   0.6606   0.6616   0.6615

 MOLE FRACTIONS

 *e-              0.00178  0.00182  0.00186  0.00189  0.00193  0.00197  0.00141  0.00144
 *H               0.99642  0.99634  0.99627  0.99619  0.99612  0.99604  0.99715  0.99709
 *H+              0.00178  0.00182  0.00186  0.00189  0.00193  0.00197  0.00141  0.00144
 *H2              0.00002  0.00002  0.00002  0.00002  0.00002  0.00002  0.00003  0.00003

  * THERMODYNAMIC PROPERTIES FITTED TO 20000.K

 NOTE. WEIGHT FRACTION OF FUEL IN TOTAL FUELS AND OF OXIDANT IN TOTAL OXIDANTS









               THERMODYNAMIC EQUILIBRIUM PROPERTIES AT ASSIGNED

                           TEMPERATURE AND PRESSURE

 CASE =                

             REACTANT                    WT FRACTION      ENERGY      TEMP
                                          (SEE NOTE)     KJ/KG-MOL      K  
             H2                           1.0000000         0.000      0.000

 O/F=    0.00000  %FUEL=100.000000  R,EQ.RATIO= 0.000000  PHI,EQ.RATIO= 0.000000

 THERMODYNAMIC PROPERTIES

 P, BAR           0.01320  0.01320  0.01320  0.01320  0.01320  0.01320  0.01320  0.01320
 T, K             6470.00  6480.00  6490.00  6500.00  6510.00  6520.00  6530.00  6540.00
 RHO, KG/CU M    2.4697-5 2.4658-5 2.4619-5 2.4580-5 2.4542-5 2.4503-5 2.4465-5 2.4427-5
 H, KJ/KG        345659.6 345910.5 346162.2 346414.7 346668.1 346922.3 347177.4 347433.3
 U, KJ/KG        292211.1 292377.8 292545.2 292713.4 292882.3 293052.1 293222.7 293394.2
 G, KJ/KG       -1034543.-1036676.-1038810.-1040944.-1043079.-1045214.-1047349.-1049485.
 S, KJ/(KG)(K)   213.3234 213.3622 213.4010 213.4399 213.4788 213.5178 213.5569 213.5961

 M, (1/n)           1.006    1.006    1.006    1.006    1.006    1.006    1.006    1.006
 (dLV/dLP)t      -1.00076 -1.00078 -1.00079 -1.00081 -1.00082 -1.00084 -1.00086 -1.00087
 (dLV/dLT)p        1.0200   1.0204   1.0208   1.0212   1.0216   1.0220   1.0224   1.0228
 Cp, KJ/(KG)(K)   25.0510  25.1311  25.2125  25.2950  25.3788  25.4638  25.5501  25.6377
 GAMMAs            1.5205   1.5186   1.5166   1.5147   1.5127   1.5107   1.5087   1.5067
 SON VEL,M/SEC     9014.9   9016.3   9017.6   9018.8   9020.0   9021.2   9022.3   9023.3

 TRANSPORT PROPERTIES (GASES ONLY)
   CONDUCTIVITY IN UNITS OF MILLIWATTS/(CM)(K)

 VISC,MILLIPOISE  0.66925  0.66999  0.67073  0.67147  0.67220  0.67293  0.67365  0.67437

  WITH EQUILIBRIUM REACTIONS

 Cp, KJ/(KG)(K)   25.0510  25.1311  25.2125  25.2950  25.3788  25.4638  25.5501  25.6377
 CONDUCTIVITY     21.6822  21.7227  21.7634  21.8042  21.8451  21.8862  21.9274  21.9688
 PRANDTL NUMBER    0.7732   0.7751   0.7770   0.7790   0.7809   0.7829   0.7849   0.7870

  WITH FROZEN REACTIONS

 Cp, KJ/(KG)(K)   20.6402  20.6409  20.6417  20.6425  20.6433  20.6442  20.6450  20.6459
 CONDUCTIVITY     20.8831  20.9091  20.9350  20.9608  20.9865  21.0120  21.0375  21.0628
 PRANDTL NUMBER    0.6615   0.6614   0.6613   0.6613   0.6612   0.6611   0.6611   0.6610

 MOLE FRACTIONS

 *e-              0.00147  0.00150  0.00153  0.00157  0.00160  0.00163  0.00166  0.00170
 *H               0.99703  0.99697  0.99691  0.99684  0.99678  0.99671  0.99665  0.99658
 *H+              0.00147  0.00150  0.00153  0.00157  0.00160  0.00163  0.00166  0.00170
 *H2              0.00002  0.00002  0.00002  0.00002  0.00002  0.00002  0.00002  0.00002

  * THERMODYNAMIC PROPERTIES FITTED TO 20000.K

 NOTE. WEIGHT FRACTION OF FUEL IN TOTAL FUELS AND OF OXIDANT IN TOTAL OXIDANTS









               THERMODYNAMIC EQUILIBRIUM PROPERTIES AT ASSIGNED

                           TEMPERATURE AND PRESSURE

 CASE =                

             REACTANT                    WT FRACTION      ENERGY      TEMP
                                          (SEE NOTE)     KJ/KG-MOL      K  
             H2                           1.0000000         0.000      0.000

 O/F=    0.00000  %FUEL=100.000000  R,EQ.RATIO= 0.000000  PHI,EQ.RATIO= 0.000000

 THERMODYNAMIC PROPERTIES

 P, BAR           0.01320  0.01320  0.01320  0.01320  0.01320  0.01480  0.01480  0.01480
 T, K             6550.00  6560.00  6570.00  6580.00  6590.00  6450.00  6460.00  6470.00
 RHO, KG/CU M    2.4389-5 2.4351-5 2.4313-5 2.4275-5 2.4237-5 2.7780-5 2.7736-5 2.7693-5
 H, KJ/KG        347690.1 347947.9 348206.5 348466.0 348726.5 345045.9 345292.9 345540.6
 U, KJ/KG        293566.5 293739.6 293913.6 294088.5 294264.3 291770.3 291933.1 292096.7
 G, KJ/KG       -1051621.-1053758.-1055895.-1058032.-1060170.-1024182.-1026305.-1028428.
 S, KJ/(KG)(K)   213.6353 213.6747 213.7140 213.7535 213.7931 212.2834 212.3216 212.3599

 M, (1/n)           1.006    1.006    1.006    1.006    1.006    1.007    1.007    1.007
 (dLV/dLP)t      -1.00089 -1.00091 -1.00092 -1.00094 -1.00096 -1.00070 -1.00071 -1.00072
 (dLV/dLT)p        1.0232   1.0237   1.0241   1.0246   1.0250   1.0182   1.0186   1.0189
 Cp, KJ/(KG)(K)   25.7266  25.8167  25.9082  26.0011  26.0952  24.6590  24.7324  24.8068
 GAMMAs            1.5047   1.5027   1.5006   1.4986   1.4965   1.5304   1.5286   1.5267
 SON VEL,M/SEC     9024.4   9025.3   9026.3   9027.2   9028.0   9029.6   9031.3   9032.8

 TRANSPORT PROPERTIES (GASES ONLY)
   CONDUCTIVITY IN UNITS OF MILLIWATTS/(CM)(K)

 VISC,MILLIPOISE  0.67509  0.67580  0.67650  0.67720  0.67790  0.66827  0.66904  0.66980

  WITH EQUILIBRIUM REACTIONS

 Cp, KJ/(KG)(K)   25.7266  25.8167  25.9082  26.0011  26.0952  24.6590  24.7324  24.8068
 CONDUCTIVITY     22.0103  22.0520  22.0938  22.1358  22.1779  21.5717  21.6114  21.6512
 PRANDTL NUMBER    0.7891   0.7912   0.7933   0.7955   0.7976   0.7639   0.7657   0.7674

  WITH FROZEN REACTIONS

 Cp, KJ/(KG)(K)   20.6468  20.6477  20.6487  20.6496  20.6506  20.6371  20.6378  20.6385
 CONDUCTIVITY     21.0881  21.1132  21.1382  21.1631  21.1879  20.8403  20.8667  20.8931
 PRANDTL NUMBER    0.6610   0.6609   0.6608   0.6608   0.6607   0.6618   0.6617   0.6616

 MOLE FRACTIONS

 *e-              0.00173  0.00177  0.00181  0.00184  0.00188  0.00133  0.00136  0.00139
 *H               0.99651  0.99644  0.99637  0.99629  0.99622  0.99730  0.99725  0.99719
 *H+              0.00173  0.00177  0.00181  0.00184  0.00188  0.00133  0.00136  0.00139
 *H2              0.00002  0.00002  0.00002  0.00002  0.00002  0.00003  0.00003  0.00003

  * THERMODYNAMIC PROPERTIES FITTED TO 20000.K

 NOTE. WEIGHT FRACTION OF FUEL IN TOTAL FUELS AND OF OXIDANT IN TOTAL OXIDANTS









               THERMODYNAMIC EQUILIBRIUM PROPERTIES AT ASSIGNED

                           TEMPERATURE AND PRESSURE

 CASE =                

             REACTANT                    WT FRACTION      ENERGY      TEMP
                                          (SEE NOTE)     KJ/KG-MOL      K  
             H2                           1.0000000         0.000      0.000

 O/F=    0.00000  %FUEL=100.000000  R,EQ.RATIO= 0.000000  PHI,EQ.RATIO= 0.000000

 THERMODYNAMIC PROPERTIES

 P, BAR           0.01480  0.01480  0.01480  0.01480  0.01480  0.01480  0.01480  0.01480
 T, K             6480.00  6490.00  6500.00  6510.00  6520.00  6530.00  6540.00  6550.00
 RHO, KG/CU M    2.7649-5 2.7606-5 2.7562-5 2.7519-5 2.7476-5 2.7433-5 2.7390-5 2.7347-5
 H, KJ/KG        345789.0 346038.2 346288.2 346539.0 346790.5 347042.9 347296.1 347550.1
 U, KJ/KG        292260.9 292425.9 292591.7 292758.1 292925.4 293093.4 293262.2 293431.8
 G, KJ/KG       -1030552.-1032676.-1034801.-1036926.-1039051.-1041177.-1043303.-1045429.
 S, KJ/(KG)(K)   212.3983 212.4367 212.4752 212.5138 212.5524 212.5911 212.6298 212.6686

 M, (1/n)           1.007    1.007    1.006    1.006    1.006    1.006    1.006    1.006
 (dLV/dLP)t      -1.00074 -1.00075 -1.00077 -1.00078 -1.00080 -1.00081 -1.00083 -1.00084
 (dLV/dLT)p        1.0193   1.0197   1.0200   1.0204   1.0208   1.0212   1.0216   1.0220
 Cp, KJ/(KG)(K)   24.8825  24.9592  25.0371  25.1162  25.1965  25.2780  25.3606  25.4445
 GAMMAs            1.5248   1.5229   1.5210   1.5191   1.5171   1.5152   1.5133   1.5113
 SON VEL,M/SEC     9034.4   9035.8   9037.3   9038.6   9040.0   9041.3   9042.5   9043.7

 TRANSPORT PROPERTIES (GASES ONLY)
   CONDUCTIVITY IN UNITS OF MILLIWATTS/(CM)(K)

 VISC,MILLIPOISE  0.67055  0.67131  0.67205  0.67280  0.67354  0.67428  0.67501  0.67574

  WITH EQUILIBRIUM REACTIONS

 Cp, KJ/(KG)(K)   24.8825  24.9592  25.0371  25.1162  25.1965  25.2780  25.3606  25.4445
 CONDUCTIVITY     21.6912  21.7313  21.7715  21.8119  21.8524  21.8931  21.9339  21.9748
 PRANDTL NUMBER    0.7692   0.7710   0.7729   0.7747   0.7766   0.7785   0.7805   0.7824

  WITH FROZEN REACTIONS

 Cp, KJ/(KG)(K)   20.6392  20.6400  20.6407  20.6415  20.6423  20.6431  20.6440  20.6448
 CONDUCTIVITY     20.9194  20.9456  20.9717  20.9977  21.0236  21.0494  21.0751  21.1007
 PRANDTL NUMBER    0.6616   0.6615   0.6614   0.6614   0.6613   0.6613   0.6612   0.6611

 MOLE FRACTIONS

 *e-              0.00142  0.00145  0.00148  0.00151  0.00154  0.00157  0.00160  0.00164
 *H               0.99713  0.99708  0.99702  0.99695  0.99689  0.99683  0.99676  0.99670
 *H+              0.00142  0.00145  0.00148  0.00151  0.00154  0.00157  0.00160  0.00164
 *H2              0.00003  0.00003  0.00003  0.00003  0.00003  0.00003  0.00003  0.00003

  * THERMODYNAMIC PROPERTIES FITTED TO 20000.K

 NOTE. WEIGHT FRACTION OF FUEL IN TOTAL FUELS AND OF OXIDANT IN TOTAL OXIDANTS









               THERMODYNAMIC EQUILIBRIUM PROPERTIES AT ASSIGNED

                           TEMPERATURE AND PRESSURE

 CASE =                

             REACTANT                    WT FRACTION      ENERGY      TEMP
                                          (SEE NOTE)     KJ/KG-MOL      K  
             H2                           1.0000000         0.000      0.000

 O/F=    0.00000  %FUEL=100.000000  R,EQ.RATIO= 0.000000  PHI,EQ.RATIO= 0.000000

 THERMODYNAMIC PROPERTIES

 P, BAR           0.01480  0.01480  0.01480  0.01480  0.01650  0.01650  0.01650  0.01650
 T, K             6560.00  6570.00  6580.00  6590.00  6450.00  6460.00  6470.00  6480.00
 RHO, KG/CU M    2.7305-5 2.7262-5 2.7220-5 2.7178-5 3.0973-5 3.0925-5 3.0876-5 3.0827-5
 H, KJ/KG        347805.0 348060.7 348317.3 348574.8 344943.0 345187.9 345433.4 345679.6
 U, KJ/KG        293602.2 293773.5 293945.5 294118.4 291671.3 291832.1 291993.6 292155.7
 G, KJ/KG       -1047556.-1049683.-1051811.-1053939.-1018389.-1020503.-1022617.-1024732.
 S, KJ/(KG)(K)   212.7075 212.7465 212.7855 212.8246 211.3693 211.4073 211.4452 211.4833

 M, (1/n)           1.006    1.006    1.006    1.006    1.007    1.007    1.007    1.007
 (dLV/dLP)t      -1.00086 -1.00088 -1.00089 -1.00091 -1.00066 -1.00068 -1.00069 -1.00070
 (dLV/dLT)p        1.0224   1.0228   1.0232   1.0237   1.0173   1.0176   1.0180   1.0183
 Cp, KJ/(KG)(K)   25.5297  25.6161  25.7037  25.7926  24.4477  24.5172  24.5877  24.6592
 GAMMAs            1.5093   1.5073   1.5054   1.5034   1.5360   1.5342   1.5324   1.5305
 SON VEL,M/SEC     9044.9   9046.0   9047.0   9048.1   9045.8   9047.6   9049.3   9051.0

 TRANSPORT PROPERTIES (GASES ONLY)
   CONDUCTIVITY IN UNITS OF MILLIWATTS/(CM)(K)

 VISC,MILLIPOISE  0.67646  0.67718  0.67790  0.67861  0.66875  0.66952  0.67029  0.67106

  WITH EQUILIBRIUM REACTIONS

 Cp, KJ/(KG)(K)   25.5297  25.6161  25.7037  25.7926  24.4477  24.5172  24.5877  24.6592
 CONDUCTIVITY     22.0159  22.0571  22.0984  22.1399  21.5451  21.5843  21.6236  21.6631
 PRANDTL NUMBER    0.7844   0.7864   0.7885   0.7906   0.7588   0.7605   0.7622   0.7639

  WITH FROZEN REACTIONS

 Cp, KJ/(KG)(K)   20.6457  20.6466  20.6475  20.6484  20.6356  20.6363  20.6370  20.6377
 CONDUCTIVITY     21.1262  21.1516  21.1768  21.2020  20.8485  20.8752  20.9019  20.9284
 PRANDTL NUMBER    0.6611   0.6610   0.6610   0.6609   0.6619   0.6619   0.6618   0.6617

 MOLE FRACTIONS

 *e-              0.00167  0.00171  0.00174  0.00178  0.00126  0.00129  0.00132  0.00134
 *H               0.99663  0.99656  0.99650  0.99643  0.99744  0.99739  0.99734  0.99728
 *H+              0.00167  0.00171  0.00174  0.00178  0.00126  0.00129  0.00132  0.00134
 *H2              0.00002  0.00002  0.00002  0.00002  0.00003  0.00003  0.00003  0.00003

  * THERMODYNAMIC PROPERTIES FITTED TO 20000.K

 NOTE. WEIGHT FRACTION OF FUEL IN TOTAL FUELS AND OF OXIDANT IN TOTAL OXIDANTS









               THERMODYNAMIC EQUILIBRIUM PROPERTIES AT ASSIGNED

                           TEMPERATURE AND PRESSURE

 CASE =                

             REACTANT                    WT FRACTION      ENERGY      TEMP
                                          (SEE NOTE)     KJ/KG-MOL      K  
             H2                           1.0000000         0.000      0.000

 O/F=    0.00000  %FUEL=100.000000  R,EQ.RATIO= 0.000000  PHI,EQ.RATIO= 0.000000

 THERMODYNAMIC PROPERTIES

 P, BAR           0.01650  0.01650  0.01650  0.01650  0.01650  0.01650  0.01650  0.01650
 T, K             6490.00  6500.00  6510.00  6520.00  6530.00  6540.00  6550.00  6560.00
 RHO, KG/CU M    3.0779-5 3.0731-5 3.0683-5 3.0635-5 3.0587-5 3.0539-5 3.0491-5 3.0444-5
 H, KJ/KG        345926.6 346174.3 346422.7 346671.9 346921.8 347172.5 347424.1 347676.4
 U, KJ/KG        292318.5 292482.1 292646.3 292811.3 292977.0 293143.4 293310.6 293478.6
 G, KJ/KG       -1026847.-1028962.-1031078.-1033194.-1035311.-1037428.-1039545.-1041663.
 S, KJ/(KG)(K)   211.5213 211.5595 211.5977 211.6359 211.6742 211.7126 211.7510 211.7895

 M, (1/n)           1.007    1.007    1.007    1.006    1.006    1.006    1.006    1.006
 (dLV/dLP)t      -1.00072 -1.00073 -1.00074 -1.00076 -1.00077 -1.00079 -1.00080 -1.00082
 (dLV/dLT)p        1.0187   1.0190   1.0194   1.0197   1.0201   1.0205   1.0209   1.0213
 Cp, KJ/(KG)(K)   24.7319  24.8057  24.8805  24.9565  25.0336  25.1119  25.1913  25.2719
 GAMMAs            1.5287   1.5268   1.5250   1.5231   1.5212   1.5193   1.5174   1.5155
 SON VEL,M/SEC     9052.7   9054.3   9055.8   9057.3   9058.8   9060.2   9061.6   9062.9

 TRANSPORT PROPERTIES (GASES ONLY)
   CONDUCTIVITY IN UNITS OF MILLIWATTS/(CM)(K)

 VISC,MILLIPOISE  0.67182  0.67258  0.67334  0.67409  0.67484  0.67558  0.67632  0.67706

  WITH EQUILIBRIUM REACTIONS

 Cp, KJ/(KG)(K)   24.7319  24.8057  24.8805  24.9565  25.0336  25.1119  25.1913  25.2719
 CONDUCTIVITY     21.7027  21.7424  21.7822  21.8222  21.8623  21.9026  21.9430  21.9835
 PRANDTL NUMBER    0.7656   0.7673   0.7691   0.7709   0.7727   0.7746   0.7764   0.7783

  WITH FROZEN REACTIONS

 Cp, KJ/(KG)(K)   20.6384  20.6391  20.6398  20.6406  20.6414  20.6422  20.6430  20.6439
 CONDUCTIVITY     20.9549  20.9813  21.0075  21.0337  21.0599  21.0859  21.1118  21.1376
 PRANDTL NUMBER    0.6617   0.6616   0.6616   0.6615   0.6614   0.6614   0.6613   0.6612

 MOLE FRACTIONS

 *e-              0.00137  0.00140  0.00143  0.00146  0.00149  0.00152  0.00155  0.00158
 *H               0.99723  0.99717  0.99711  0.99705  0.99699  0.99693  0.99687  0.99681
 *H+              0.00137  0.00140  0.00143  0.00146  0.00149  0.00152  0.00155  0.00158
 *H2              0.00003  0.00003  0.00003  0.00003  0.00003  0.00003  0.00003  0.00003

  * THERMODYNAMIC PROPERTIES FITTED TO 20000.K

 NOTE. WEIGHT FRACTION OF FUEL IN TOTAL FUELS AND OF OXIDANT IN TOTAL OXIDANTS









               THERMODYNAMIC EQUILIBRIUM PROPERTIES AT ASSIGNED

                           TEMPERATURE AND PRESSURE

 CASE =                

             REACTANT                    WT FRACTION      ENERGY      TEMP
                                          (SEE NOTE)     KJ/KG-MOL      K  
             H2                           1.0000000         0.000      0.000

 O/F=    0.00000  %FUEL=100.000000  R,EQ.RATIO= 0.000000  PHI,EQ.RATIO= 0.000000

 THERMODYNAMIC PROPERTIES

 P, BAR           0.01650  0.01650  0.01650  0.01800  0.01800  0.01800  0.01800  0.01800
 T, K             6570.00  6580.00  6590.00  6450.00  6460.00  6470.00  6480.00  6490.00
 RHO, KG/CU M    3.0397-5 3.0349-5 3.0302-5 3.3791-5 3.3738-5 3.3685-5 3.3632-5 3.3579-5
 H, KJ/KG        347929.5 348183.5 348438.2 344864.5 345107.7 345351.5 345596.1 345841.3
 U, KJ/KG        293647.3 293816.8 293987.1 291595.8 291755.0 291914.9 292075.4 292236.6
 G, KJ/KG       -1043781.-1045899.-1048018.-1013754.-1015861.-1017968.-1020075.-1022183.
 S, KJ/(KG)(K)   211.8281 211.8667 211.9054 210.6385 210.6762 210.7139 210.7517 210.7895

 M, (1/n)           1.006    1.006    1.006    1.007    1.007    1.007    1.007    1.007
 (dLV/dLP)t      -1.00084 -1.00085 -1.00087 -1.00064 -1.00065 -1.00066 -1.00068 -1.00069
 (dLV/dLT)p        1.0217   1.0221   1.0225   1.0166   1.0169   1.0172   1.0176   1.0179
 Cp, KJ/(KG)(K)   25.3537  25.4367  25.5209  24.2870  24.3534  24.4209  24.4894  24.5589
 GAMMAs            1.5136   1.5116   1.5097   1.5403   1.5386   1.5368   1.5350   1.5332
 SON VEL,M/SEC     9064.2   9065.4   9066.6   9058.3   9060.2   9062.1   9063.9   9065.7

 TRANSPORT PROPERTIES (GASES ONLY)
   CONDUCTIVITY IN UNITS OF MILLIWATTS/(CM)(K)

 VISC,MILLIPOISE  0.67779  0.67852  0.67925  0.66911  0.66989  0.67067  0.67144  0.67221

  WITH EQUILIBRIUM REACTIONS

 Cp, KJ/(KG)(K)   25.3537  25.4367  25.5209  24.2870  24.3534  24.4209  24.4894  24.5589
 CONDUCTIVITY     22.0242  22.0650  22.1059  21.5250  21.5638  21.6027  21.6418  21.6810
 PRANDTL NUMBER    0.7803   0.7822   0.7842   0.7550   0.7565   0.7582   0.7598   0.7614

  WITH FROZEN REACTIONS

 Cp, KJ/(KG)(K)   20.6447  20.6456  20.6465  20.6345  20.6352  20.6358  20.6365  20.6372
 CONDUCTIVITY     21.1633  21.1889  21.2144  20.8547  20.8816  20.9084  20.9352  20.9618
 PRANDTL NUMBER    0.6612   0.6611   0.6611   0.6620   0.6620   0.6619   0.6619   0.6618

 MOLE FRACTIONS

 *e-              0.00162  0.00165  0.00168  0.00121  0.00123  0.00126  0.00129  0.00131
 *H               0.99674  0.99668  0.99661  0.99755  0.99750  0.99744  0.99739  0.99734
 *H+              0.00162  0.00165  0.00168  0.00121  0.00123  0.00126  0.00129  0.00131
 *H2              0.00003  0.00003  0.00003  0.00003  0.00003  0.00003  0.00003  0.00003

  * THERMODYNAMIC PROPERTIES FITTED TO 20000.K

 NOTE. WEIGHT FRACTION OF FUEL IN TOTAL FUELS AND OF OXIDANT IN TOTAL OXIDANTS









               THERMODYNAMIC EQUILIBRIUM PROPERTIES AT ASSIGNED

                           TEMPERATURE AND PRESSURE

 CASE =                

             REACTANT                    WT FRACTION      ENERGY      TEMP
                                          (SEE NOTE)     KJ/KG-MOL      K  
             H2                           1.0000000         0.000      0.000

 O/F=    0.00000  %FUEL=100.000000  R,EQ.RATIO= 0.000000  PHI,EQ.RATIO= 0.000000

 THERMODYNAMIC PROPERTIES

 P, BAR           0.01800  0.01800  0.01800  0.01800  0.01800  0.01800  0.01800  0.01800
 T, K             6500.00  6510.00  6520.00  6530.00  6540.00  6550.00  6560.00  6570.00
 RHO, KG/CU M    3.3527-5 3.3474-5 3.3422-5 3.3370-5 3.3318-5 3.3266-5 3.3214-5 3.3162-5
 H, KJ/KG        346087.3 346333.9 346581.3 346829.4 347078.2 347327.8 347578.2 347829.4
 U, KJ/KG        292398.4 292561.0 292724.2 292888.1 293052.7 293218.1 293384.2 293551.0
 G, KJ/KG       -1024291.-1026399.-1028508.-1030617.-1032727.-1034837.-1036947.-1039058.
 S, KJ/(KG)(K)   210.8274 210.8653 210.9033 210.9413 210.9794 211.0175 211.0557 211.0940

 M, (1/n)           1.007    1.007    1.007    1.007    1.007    1.006    1.006    1.006
 (dLV/dLP)t      -1.00070 -1.00072 -1.00073 -1.00074 -1.00076 -1.00077 -1.00079 -1.00080
 (dLV/dLT)p        1.0182   1.0186   1.0189   1.0193   1.0196   1.0200   1.0204   1.0208
 Cp, KJ/(KG)(K)   24.6295  24.7011  24.7739  24.8477  24.9226  24.9986  25.0757  25.1540
 GAMMAs            1.5314   1.5296   1.5277   1.5259   1.5240   1.5222   1.5203   1.5184
 SON VEL,M/SEC     9067.5   9069.2   9070.8   9072.4   9074.0   9075.5   9076.9   9078.4

 TRANSPORT PROPERTIES (GASES ONLY)
   CONDUCTIVITY IN UNITS OF MILLIWATTS/(CM)(K)

 VISC,MILLIPOISE  0.67298  0.67375  0.67451  0.67527  0.67602  0.67677  0.67752  0.67826

  WITH EQUILIBRIUM REACTIONS

 Cp, KJ/(KG)(K)   24.6295  24.7011  24.7739  24.8477  24.9226  24.9986  25.0757  25.1540
 CONDUCTIVITY     21.7203  21.7598  21.7993  21.8390  21.8789  21.9189  21.9590  21.9992
 PRANDTL NUMBER    0.7631   0.7648   0.7665   0.7683   0.7701   0.7719   0.7737   0.7755

  WITH FROZEN REACTIONS

 Cp, KJ/(KG)(K)   20.6379  20.6386  20.6393  20.6401  20.6409  20.6417  20.6425  20.6433
 CONDUCTIVITY     20.9884  21.0149  21.0414  21.0677  21.0939  21.1201  21.1462  21.1721
 PRANDTL NUMBER    0.6617   0.6617   0.6616   0.6616   0.6615   0.6614   0.6614   0.6613

 MOLE FRACTIONS

 *e-              0.00134  0.00137  0.00140  0.00143  0.00146  0.00149  0.00152  0.00155
 *H               0.99729  0.99723  0.99717  0.99712  0.99706  0.99700  0.99694  0.99688
 *H+              0.00134  0.00137  0.00140  0.00143  0.00146  0.00149  0.00152  0.00155
 *H2              0.00003  0.00003  0.00003  0.00003  0.00003  0.00003  0.00003  0.00003

  * THERMODYNAMIC PROPERTIES FITTED TO 20000.K

 NOTE. WEIGHT FRACTION OF FUEL IN TOTAL FUELS AND OF OXIDANT IN TOTAL OXIDANTS









               THERMODYNAMIC EQUILIBRIUM PROPERTIES AT ASSIGNED

                           TEMPERATURE AND PRESSURE

 CASE =                

             REACTANT                    WT FRACTION      ENERGY      TEMP
                                          (SEE NOTE)     KJ/KG-MOL      K  
             H2                           1.0000000         0.000      0.000

 O/F=    0.00000  %FUEL=100.000000  R,EQ.RATIO= 0.000000  PHI,EQ.RATIO= 0.000000

 THERMODYNAMIC PROPERTIES

 P, BAR           0.01800  0.01800  0.02000  0.02000  0.02000  0.02000  0.02000  0.02000
 T, K             6580.00  6590.00  6450.00  6460.00  6470.00  6480.00  6490.00  6500.00
 RHO, KG/CU M    3.3111-5 3.3060-5 3.7548-5 3.7489-5 3.7430-5 3.7371-5 3.7313-5 3.7254-5
 H, KJ/KG        348081.3 348334.0 344773.5 345014.9 345256.8 345499.4 345742.7 345986.6
 U, KJ/KG        293718.6 293887.0 291508.4 291665.8 291823.8 291982.5 292141.8 292301.7
 G, KJ/KG       -1041169.-1043281.-1008142.-1010240.-1012338.-1014436.-1016535.-1018634.
 S, KJ/(KG)(K)   211.1323 211.1707 209.7543 209.7917 209.8291 209.8666 209.9041 209.9417

 M, (1/n)           1.006    1.006    1.007    1.007    1.007    1.007    1.007    1.007
 (dLV/dLP)t      -1.00082 -1.00083 -1.00061 -1.00062 -1.00064 -1.00065 -1.00066 -1.00067
 (dLV/dLT)p        1.0211   1.0215   1.0158   1.0161   1.0164   1.0167   1.0170   1.0174
 Cp, KJ/(KG)(K)   25.2334  25.3140  24.1018  24.1648  24.2287  24.2937  24.3596  24.4265
 GAMMAs            1.5165   1.5146   1.5455   1.5437   1.5420   1.5403   1.5385   1.5368
 SON VEL,M/SEC     9079.7   9081.1   9073.0   9075.1   9077.2   9079.2   9081.1   9083.1

 TRANSPORT PROPERTIES (GASES ONLY)
   CONDUCTIVITY IN UNITS OF MILLIWATTS/(CM)(K)

 VISC,MILLIPOISE  0.67900  0.67973  0.66952  0.67031  0.67110  0.67189  0.67267  0.67345

  WITH EQUILIBRIUM REACTIONS

 Cp, KJ/(KG)(K)   25.2334  25.3140  24.1018  24.1648  24.2287  24.2937  24.3596  24.4265
 CONDUCTIVITY     22.0396  22.0801  21.5021  21.5404  21.5789  21.6175  21.6562  21.6951
 PRANDTL NUMBER    0.7774   0.7793   0.7505   0.7520   0.7535   0.7551   0.7566   0.7582

  WITH FROZEN REACTIONS

 Cp, KJ/(KG)(K)   20.6442  20.6450  20.6333  20.6339  20.6345  20.6351  20.6358  20.6364
 CONDUCTIVITY     21.1980  21.2238  20.8617  20.8888  20.9159  20.9428  20.9697  20.9966
 PRANDTL NUMBER    0.6613   0.6612   0.6622   0.6621   0.6621   0.6620   0.6620   0.6619

 MOLE FRACTIONS

 *e-              0.00158  0.00161  0.00115  0.00117  0.00120  0.00122  0.00125  0.00127
 *H               0.99681  0.99675  0.99767  0.99762  0.99757  0.99752  0.99747  0.99742
 *H+              0.00158  0.00161  0.00115  0.00117  0.00120  0.00122  0.00125  0.00127
 *H2              0.00003  0.00003  0.00004  0.00004  0.00004  0.00004  0.00004  0.00004

  * THERMODYNAMIC PROPERTIES FITTED TO 20000.K

 NOTE. WEIGHT FRACTION OF FUEL IN TOTAL FUELS AND OF OXIDANT IN TOTAL OXIDANTS









               THERMODYNAMIC EQUILIBRIUM PROPERTIES AT ASSIGNED

                           TEMPERATURE AND PRESSURE

 CASE =                

             REACTANT                    WT FRACTION      ENERGY      TEMP
                                          (SEE NOTE)     KJ/KG-MOL      K  
             H2                           1.0000000         0.000      0.000

 O/F=    0.00000  %FUEL=100.000000  R,EQ.RATIO= 0.000000  PHI,EQ.RATIO= 0.000000

 THERMODYNAMIC PROPERTIES

 P, BAR           0.02000  0.02000  0.02000  0.02000  0.02000  0.02000  0.02000  0.02000
 T, K             6510.00  6520.00  6530.00  6540.00  6550.00  6560.00  6570.00  6580.00
 RHO, KG/CU M    3.7196-5 3.7138-5 3.7080-5 3.7022-5 3.6965-5 3.6907-5 3.6850-5 3.6793-5
 H, KJ/KG        346231.2 346476.5 346722.5 346969.2 347216.6 347464.7 347713.6 347963.2
 U, KJ/KG        292462.3 292623.5 292785.4 292947.9 293111.2 293275.1 293439.7 293605.1
 G, KJ/KG       -1020734.-1022834.-1024934.-1027035.-1029136.-1031238.-1033339.-1035442.
 S, KJ/(KG)(K)   209.9793 210.0169 210.0546 210.0924 210.1302 210.1680 210.2059 210.2439

 M, (1/n)           1.007    1.007    1.007    1.007    1.007    1.007    1.006    1.006
 (dLV/dLP)t      -1.00069 -1.00070 -1.00071 -1.00073 -1.00074 -1.00075 -1.00077 -1.00078
 (dLV/dLT)p        1.0177   1.0180   1.0183   1.0187   1.0190   1.0194   1.0197   1.0201
 Cp, KJ/(KG)(K)   24.4944  24.5634  24.6333  24.7044  24.7764  24.8496  24.9238  24.9991
 GAMMAs            1.5350   1.5332   1.5314   1.5296   1.5278   1.5260   1.5241   1.5223
 SON VEL,M/SEC     9084.9   9086.7   9088.5   9090.2   9091.9   9093.5   9095.1   9096.6

 TRANSPORT PROPERTIES (GASES ONLY)
   CONDUCTIVITY IN UNITS OF MILLIWATTS/(CM)(K)

 VISC,MILLIPOISE  0.67422  0.67500  0.67576  0.67653  0.67729  0.67805  0.67880  0.67955

  WITH EQUILIBRIUM REACTIONS

 Cp, KJ/(KG)(K)   24.4944  24.5634  24.6333  24.7044  24.7764  24.8496  24.9238  24.9991
 CONDUCTIVITY     21.7340  21.7731  21.8124  21.8517  21.8912  21.9308  21.9705  22.0104
 PRANDTL NUMBER    0.7599   0.7615   0.7632   0.7648   0.7666   0.7683   0.7700   0.7718

  WITH FROZEN REACTIONS

 Cp, KJ/(KG)(K)   20.6371  20.6379  20.6386  20.6393  20.6401  20.6409  20.6417  20.6425
 CONDUCTIVITY     21.0233  21.0500  21.0766  21.1031  21.1295  21.1559  21.1821  21.2083
 PRANDTL NUMBER    0.6618   0.6618   0.6617   0.6617   0.6616   0.6615   0.6615   0.6614

 MOLE FRACTIONS

 *e-              0.00130  0.00133  0.00135  0.00138  0.00141  0.00144  0.00147  0.00150
 *H               0.99737  0.99731  0.99726  0.99720  0.99715  0.99709  0.99703  0.99697
 *H+              0.00130  0.00133  0.00135  0.00138  0.00141  0.00144  0.00147  0.00150
 *H2              0.00004  0.00004  0.00003  0.00003  0.00003  0.00003  0.00003  0.00003

  * THERMODYNAMIC PROPERTIES FITTED TO 20000.K

 NOTE. WEIGHT FRACTION OF FUEL IN TOTAL FUELS AND OF OXIDANT IN TOTAL OXIDANTS









               THERMODYNAMIC EQUILIBRIUM PROPERTIES AT ASSIGNED

                           TEMPERATURE AND PRESSURE

 CASE =                

             REACTANT                    WT FRACTION      ENERGY      TEMP
                                          (SEE NOTE)     KJ/KG-MOL      K  
             H2                           1.0000000         0.000      0.000

 O/F=    0.00000  %FUEL=100.000000  R,EQ.RATIO= 0.000000  PHI,EQ.RATIO= 0.000000

 THERMODYNAMIC PROPERTIES

 P, BAR           0.02000
 T, K             6590.00
 RHO, KG/CU M    3.6736-5
 H, KJ/KG        348213.6
 U, KJ/KG        293771.2
 G, KJ/KG       -1037544.
 S, KJ/(KG)(K)   210.2819

 M, (1/n)           1.006
 (dLV/dLP)t      -1.00080
 (dLV/dLT)p        1.0205
 Cp, KJ/(KG)(K)   25.0755
 GAMMAs            1.5204
 SON VEL,M/SEC     9098.1

 TRANSPORT PROPERTIES (GASES ONLY)
   CONDUCTIVITY IN UNITS OF MILLIWATTS/(CM)(K)

 VISC,MILLIPOISE  0.68030

  WITH EQUILIBRIUM REACTIONS

 Cp, KJ/(KG)(K)   25.0755
 CONDUCTIVITY     22.0504
 PRANDTL NUMBER    0.7736

  WITH FROZEN REACTIONS

 Cp, KJ/(KG)(K)   20.6433
 CONDUCTIVITY     21.2343
 PRANDTL NUMBER    0.6614

 MOLE FRACTIONS

 *e-              0.00153
 *H               0.99691
 *H+              0.00153
 *H2              0.00003

  * THERMODYNAMIC PROPERTIES FITTED TO 20000.K

 NOTE. WEIGHT FRACTION OF FUEL IN TOTAL FUELS AND OF OXIDANT IN TOTAL OXIDANTS



  
