
 *******************************************************************************

         NASA-GLENN CHEMICAL EQUILIBRIUM PROGRAM CEA2, MAY 21, 2004
                   BY  BONNIE MCBRIDE AND SANFORD GORDON
      REFS: NASA RP-1311, PART I, 1994 AND NASA RP-1311, PART II, 1996

 *******************************************************************************



  prob tp ions
  p,bar= 0.54,0.6,0.67,0.74,0.825,0.91,1.0,1.1,1.2,1.32,1.48,1.65,1.8,2.0,2.25
  t,k= 7650,7660,7670,7680,7690,7700,7710,7720,7730,7740,7750,7760,7770,7780,7790
  
  reac
  na H2                wt%=100.0000
  
  output short
  output siunits
  output transport
  
 end





               THERMODYNAMIC EQUILIBRIUM PROPERTIES AT ASSIGNED

                           TEMPERATURE AND PRESSURE

 CASE =                

             REACTANT                    WT FRACTION      ENERGY      TEMP
                                          (SEE NOTE)     KJ/KG-MOL      K  
             H2                           1.0000000         0.000      0.000

 O/F=    0.00000  %FUEL=100.000000  R,EQ.RATIO= 0.000000  PHI,EQ.RATIO= 0.000000

 THERMODYNAMIC PROPERTIES

 P, BAR           0.54000  0.54000  0.54000  0.54000  0.54000  0.54000  0.54000  0.54000
 T, K             7650.00  7660.00  7670.00  7680.00  7690.00  7700.00  7710.00  7720.00
 RHO, KG/CU M    8.5436-4 8.5321-4 8.5208-4 8.5094-4 8.4981-4 8.4867-4 8.4755-4 8.4642-4
 H, KJ/KG        370487.4 370736.7 370986.5 371236.9 371487.8 371739.2 371991.2 372243.7
 U, KJ/KG        307281.9 307446.6 307611.9 307777.6 307943.8 308110.6 308277.9 308445.7
 G, KJ/KG       -1053836.-1055698.-1057560.-1059423.-1061286.-1063149.-1065013.-1066877.
 S, KJ/(KG)(K)   186.1861 186.2186 186.2512 186.2838 186.3165 186.3492 186.3819 186.4146

 M, (1/n)           1.006    1.006    1.006    1.006    1.006    1.006    1.006    1.006
 (dLV/dLP)t      -1.00120 -1.00121 -1.00122 -1.00124 -1.00125 -1.00126 -1.00127 -1.00129
 (dLV/dLT)p        1.0235   1.0238   1.0241   1.0243   1.0246   1.0249   1.0252   1.0255
 Cp, KJ/(KG)(K)   24.9046  24.9567  25.0093  25.0625  25.1163  25.1706  25.2255  25.2810
 GAMMAs            1.5298   1.5285   1.5273   1.5260   1.5248   1.5235   1.5222   1.5209
 SON VEL,M/SEC     9833.2   9835.7   9838.3   9840.8   9843.2   9845.7   9848.1   9850.5

 TRANSPORT PROPERTIES (GASES ONLY)
   CONDUCTIVITY IN UNITS OF MILLIWATTS/(CM)(K)

 VISC,MILLIPOISE  0.78032  0.78105  0.78179  0.78252  0.78324  0.78396  0.78468  0.78540

  WITH EQUILIBRIUM REACTIONS

 Cp, KJ/(KG)(K)   24.9046  24.9567  25.0093  25.0625  25.1163  25.1706  25.2255  25.2810
 CONDUCTIVITY     25.3854  25.4206  25.4559  25.4912  25.5266  25.5621  25.5976  25.6332
 PRANDTL NUMBER    0.7655   0.7668   0.7681   0.7694   0.7707   0.7720   0.7733   0.7746

  WITH FROZEN REACTIONS

 Cp, KJ/(KG)(K)   20.6735  20.6742  20.6749  20.6755  20.6762  20.6769  20.6776  20.6782
 CONDUCTIVITY     24.4026  24.4288  24.4548  24.4807  24.5066  24.5323  24.5580  24.5836
 PRANDTL NUMBER    0.6611   0.6610   0.6609   0.6609   0.6608   0.6608   0.6607   0.6606

 MOLE FRACTIONS

 *e-              0.00186  0.00189  0.00192  0.00195  0.00198  0.00201  0.00204  0.00207
 *H               0.99601  0.99596  0.99590  0.99585  0.99579  0.99573  0.99567  0.99562
 *H+              0.00186  0.00189  0.00192  0.00195  0.00198  0.00200  0.00204  0.00207
 *H2              0.00027  0.00027  0.00026  0.00026  0.00026  0.00026  0.00025  0.00025

  * THERMODYNAMIC PROPERTIES FITTED TO 20000.K

 NOTE. WEIGHT FRACTION OF FUEL IN TOTAL FUELS AND OF OXIDANT IN TOTAL OXIDANTS









               THERMODYNAMIC EQUILIBRIUM PROPERTIES AT ASSIGNED

                           TEMPERATURE AND PRESSURE

 CASE =                

             REACTANT                    WT FRACTION      ENERGY      TEMP
                                          (SEE NOTE)     KJ/KG-MOL      K  
             H2                           1.0000000         0.000      0.000

 O/F=    0.00000  %FUEL=100.000000  R,EQ.RATIO= 0.000000  PHI,EQ.RATIO= 0.000000

 THERMODYNAMIC PROPERTIES

 P, BAR           0.54000  0.54000  0.54000  0.54000  0.54000  0.54000  0.54000  0.60000
 T, K             7730.00  7740.00  7750.00  7760.00  7770.00  7780.00  7790.00  7650.00
 RHO, KG/CU M    8.4530-4 8.4418-4 8.4306-4 8.4194-4 8.4083-4 8.3972-4 8.3861-4 9.4940-4
 H, KJ/KG        372496.8 372750.5 373004.7 373259.5 373514.9 373770.8 374027.4 370333.9
 U, KJ/KG        308614.0 308782.9 308952.3 309122.2 309292.7 309463.8 309635.4 307136.4
 G, KJ/KG       -1068741.-1070606.-1072471.-1074336.-1076202.-1078068.-1079934.-1047177.
 S, KJ/(KG)(K)   186.4474 186.4801 186.5130 186.5458 186.5787 186.6116 186.6446 185.2955

 M, (1/n)           1.006    1.006    1.006    1.006    1.006    1.006    1.006    1.006
 (dLV/dLP)t      -1.00130 -1.00131 -1.00133 -1.00134 -1.00135 -1.00137 -1.00138 -1.00118
 (dLV/dLT)p        1.0258   1.0261   1.0265   1.0268   1.0271   1.0274   1.0278   1.0226
 Cp, KJ/(KG)(K)   25.3371  25.3937  25.4509  25.5088  25.5672  25.6262  25.6859  24.7049
 GAMMAs            1.5196   1.5183   1.5170   1.5157   1.5144   1.5131   1.5118   1.5349
 SON VEL,M/SEC     9852.8   9855.2   9857.5   9859.8   9862.1   9864.3   9866.5   9849.0

 TRANSPORT PROPERTIES (GASES ONLY)
   CONDUCTIVITY IN UNITS OF MILLIWATTS/(CM)(K)

 VISC,MILLIPOISE  0.78611  0.78682  0.78752  0.78822  0.78892  0.78961  0.79030  0.78115

  WITH EQUILIBRIUM REACTIONS

 Cp, KJ/(KG)(K)   25.3371  25.3937  25.4509  25.5088  25.5672  25.6262  25.6859  24.7049
 CONDUCTIVITY     25.6688  25.7045  25.7402  25.7760  25.8119  25.8478  25.8837  25.3790
 PRANDTL NUMBER    0.7760   0.7773   0.7787   0.7801   0.7814   0.7828   0.7843   0.7604

  WITH FROZEN REACTIONS

 Cp, KJ/(KG)(K)   20.6789  20.6796  20.6803  20.6810  20.6817  20.6824  20.6832  20.6716
 CONDUCTIVITY     24.6091  24.6345  24.6598  24.6850  24.7101  24.7351  24.7601  24.4181
 PRANDTL NUMBER    0.6606   0.6605   0.6604   0.6604   0.6603   0.6602   0.6602   0.6613

 MOLE FRACTIONS

 *e-              0.00210  0.00213  0.00216  0.00219  0.00222  0.00226  0.00229  0.00176
 *H               0.99556  0.99550  0.99544  0.99537  0.99531  0.99525  0.99518  0.99617
 *H+              0.00210  0.00213  0.00216  0.00219  0.00222  0.00226  0.00229  0.00176
 *H2              0.00025  0.00025  0.00024  0.00024  0.00024  0.00024  0.00024  0.00030

  * THERMODYNAMIC PROPERTIES FITTED TO 20000.K

 NOTE. WEIGHT FRACTION OF FUEL IN TOTAL FUELS AND OF OXIDANT IN TOTAL OXIDANTS









               THERMODYNAMIC EQUILIBRIUM PROPERTIES AT ASSIGNED

                           TEMPERATURE AND PRESSURE

 CASE =                

             REACTANT                    WT FRACTION      ENERGY      TEMP
                                          (SEE NOTE)     KJ/KG-MOL      K  
             H2                           1.0000000         0.000      0.000

 O/F=    0.00000  %FUEL=100.000000  R,EQ.RATIO= 0.000000  PHI,EQ.RATIO= 0.000000

 THERMODYNAMIC PROPERTIES

 P, BAR           0.60000  0.60000  0.60000  0.60000  0.60000  0.60000  0.60000  0.60000
 T, K             7660.00  7670.00  7680.00  7690.00  7700.00  7710.00  7720.00  7730.00
 RHO, KG/CU M    9.4814-4 9.4687-4 9.4561-4 9.4435-4 9.4310-4 9.4184-4 9.4059-4 9.3935-4
 H, KJ/KG        370581.2 370829.0 371077.3 371326.1 371575.4 371825.2 372075.6 372326.4
 U, KJ/KG        307299.2 307462.5 307626.2 307790.5 307955.2 308120.4 308286.1 308452.3
 G, KJ/KG       -1049030.-1050884.-1052737.-1054591.-1056446.-1058301.-1060156.-1062011.
 S, KJ/(KG)(K)   185.3278 185.3602 185.3925 185.4249 185.4573 185.4897 185.5222 185.5546

 M, (1/n)           1.006    1.006    1.006    1.006    1.006    1.006    1.006    1.006
 (dLV/dLP)t      -1.00119 -1.00120 -1.00122 -1.00123 -1.00124 -1.00125 -1.00126 -1.00127
 (dLV/dLT)p        1.0229   1.0231   1.0234   1.0237   1.0240   1.0242   1.0245   1.0248
 Cp, KJ/(KG)(K)   24.7540  24.8037  24.8540  24.9047  24.9561  25.0079  25.0604  25.1133
 GAMMAs            1.5337   1.5325   1.5313   1.5300   1.5288   1.5276   1.5263   1.5251
 SON VEL,M/SEC     9851.7   9854.4   9857.0   9859.6   9862.2   9864.7   9867.2   9869.7

 TRANSPORT PROPERTIES (GASES ONLY)
   CONDUCTIVITY IN UNITS OF MILLIWATTS/(CM)(K)

 VISC,MILLIPOISE  0.78189  0.78264  0.78338  0.78412  0.78486  0.78559  0.78632  0.78704

  WITH EQUILIBRIUM REACTIONS

 Cp, KJ/(KG)(K)   24.7540  24.8037  24.8540  24.9047  24.9561  25.0079  25.0604  25.1133
 CONDUCTIVITY     25.4137  25.4485  25.4834  25.5184  25.5534  25.5884  25.6236  25.6587
 PRANDTL NUMBER    0.7616   0.7628   0.7640   0.7653   0.7665   0.7678   0.7690   0.7703

  WITH FROZEN REACTIONS

 Cp, KJ/(KG)(K)   20.6722  20.6728  20.6735  20.6741  20.6748  20.6754  20.6761  20.6767
 CONDUCTIVITY     24.4445  24.4709  24.4971  24.5233  24.5494  24.5754  24.6013  24.6272
 PRANDTL NUMBER    0.6612   0.6612   0.6611   0.6610   0.6610   0.6609   0.6609   0.6608

 MOLE FRACTIONS

 *e-              0.00179  0.00182  0.00185  0.00187  0.00190  0.00193  0.00196  0.00199
 *H               0.99612  0.99607  0.99602  0.99596  0.99591  0.99585  0.99580  0.99574
 *H+              0.00179  0.00182  0.00185  0.00187  0.00190  0.00193  0.00196  0.00199
 *H2              0.00030  0.00029  0.00029  0.00029  0.00029  0.00028  0.00028  0.00028

  * THERMODYNAMIC PROPERTIES FITTED TO 20000.K

 NOTE. WEIGHT FRACTION OF FUEL IN TOTAL FUELS AND OF OXIDANT IN TOTAL OXIDANTS









               THERMODYNAMIC EQUILIBRIUM PROPERTIES AT ASSIGNED

                           TEMPERATURE AND PRESSURE

 CASE =                

             REACTANT                    WT FRACTION      ENERGY      TEMP
                                          (SEE NOTE)     KJ/KG-MOL      K  
             H2                           1.0000000         0.000      0.000

 O/F=    0.00000  %FUEL=100.000000  R,EQ.RATIO= 0.000000  PHI,EQ.RATIO= 0.000000

 THERMODYNAMIC PROPERTIES

 P, BAR           0.60000  0.60000  0.60000  0.60000  0.60000  0.60000  0.67000  0.67000
 T, K             7740.00  7750.00  7760.00  7770.00  7780.00  7790.00  7650.00  7660.00
 RHO, KG/CU M    9.3810-4 9.3686-4 9.3562-4 9.3439-4 9.3316-4 9.3193-4 1.0603-3 1.0589-3
 H, KJ/KG        372577.8 372829.8 373082.3 373335.3 373588.9 373843.0 370179.3 370424.6
 U, KJ/KG        308619.0 308786.2 308953.9 309122.2 309291.0 309460.3 306989.9 307150.8
 G, KJ/KG       -1063867.-1065723.-1067579.-1069436.-1071293.-1073150.-1040204.-1042047.
 S, KJ/(KG)(K)   185.5871 185.6197 185.6522 185.6848 185.7174 185.7501 184.3638 184.3958

 M, (1/n)           1.006    1.006    1.006    1.006    1.006    1.006    1.007    1.007
 (dLV/dLP)t      -1.00129 -1.00130 -1.00131 -1.00132 -1.00134 -1.00135 -1.00117 -1.00118
 (dLV/dLT)p        1.0251   1.0254   1.0257   1.0260   1.0263   1.0266   1.0218   1.0220
 Cp, KJ/(KG)(K)   25.1669  25.2210  25.2756  25.3309  25.3867  25.4431  24.5089  24.5551
 GAMMAs            1.5238   1.5225   1.5213   1.5200   1.5187   1.5175   1.5401   1.5389
 SON VEL,M/SEC     9872.2   9874.7   9877.1   9879.5   9881.9   9884.2   9864.9   9867.8

 TRANSPORT PROPERTIES (GASES ONLY)
   CONDUCTIVITY IN UNITS OF MILLIWATTS/(CM)(K)

 VISC,MILLIPOISE  0.78776  0.78848  0.78920  0.78991  0.79062  0.79132  0.78198  0.78274

  WITH EQUILIBRIUM REACTIONS

 Cp, KJ/(KG)(K)   25.1669  25.2210  25.2756  25.3309  25.3867  25.4431  24.5089  24.5551
 CONDUCTIVITY     25.6940  25.7293  25.7646  25.8001  25.8355  25.8711  25.3758  25.4101
 PRANDTL NUMBER    0.7716   0.7729   0.7742   0.7755   0.7769   0.7782   0.7553   0.7564

  WITH FROZEN REACTIONS

 Cp, KJ/(KG)(K)   20.6774  20.6780  20.6787  20.6794  20.6801  20.6807  20.6696  20.6702
 CONDUCTIVITY     24.6530  24.6786  24.7042  24.7297  24.7551  24.7804  24.4333  24.4600
 PRANDTL NUMBER    0.6607   0.6607   0.6606   0.6605   0.6605   0.6604   0.6615   0.6615

 MOLE FRACTIONS

 *e-              0.00202  0.00205  0.00208  0.00211  0.00214  0.00217  0.00167  0.00170
 *H               0.99569  0.99563  0.99557  0.99551  0.99545  0.99539  0.99632  0.99628
 *H+              0.00202  0.00205  0.00208  0.00211  0.00214  0.00217  0.00167  0.00170
 *H2              0.00027  0.00027  0.00027  0.00027  0.00026  0.00026  0.00033  0.00033

  * THERMODYNAMIC PROPERTIES FITTED TO 20000.K

 NOTE. WEIGHT FRACTION OF FUEL IN TOTAL FUELS AND OF OXIDANT IN TOTAL OXIDANTS









               THERMODYNAMIC EQUILIBRIUM PROPERTIES AT ASSIGNED

                           TEMPERATURE AND PRESSURE

 CASE =                

             REACTANT                    WT FRACTION      ENERGY      TEMP
                                          (SEE NOTE)     KJ/KG-MOL      K  
             H2                           1.0000000         0.000      0.000

 O/F=    0.00000  %FUEL=100.000000  R,EQ.RATIO= 0.000000  PHI,EQ.RATIO= 0.000000

 THERMODYNAMIC PROPERTIES

 P, BAR           0.67000  0.67000  0.67000  0.67000  0.67000  0.67000  0.67000  0.67000
 T, K             7670.00  7680.00  7690.00  7700.00  7710.00  7720.00  7730.00  7740.00
 RHO, KG/CU M    1.0575-3 1.0561-3 1.0547-3 1.0533-3 1.0519-3 1.0505-3 1.0491-3 1.0477-3
 H, KJ/KG        370670.4 370916.6 371163.4 371410.6 371658.3 371906.5 372155.1 372404.3
 U, KJ/KG        307312.2 307474.0 307636.2 307798.9 307962.1 308125.8 308289.9 308454.5
 G, KJ/KG       -1043892.-1045736.-1047581.-1049426.-1051271.-1053117.-1054963.-1056809.
 S, KJ/(KG)(K)   184.4279 184.4600 184.4921 184.5242 184.5564 184.5885 184.6207 184.6529

 M, (1/n)           1.007    1.007    1.006    1.006    1.006    1.006    1.006    1.006
 (dLV/dLP)t      -1.00119 -1.00120 -1.00121 -1.00122 -1.00123 -1.00124 -1.00125 -1.00126
 (dLV/dLT)p        1.0223   1.0225   1.0228   1.0230   1.0233   1.0236   1.0238   1.0241
 Cp, KJ/(KG)(K)   24.6019  24.6492  24.6970  24.7453  24.7942  24.8435  24.8934  24.9438
 GAMMAs            1.5377   1.5366   1.5354   1.5342   1.5330   1.5318   1.5306   1.5293
 SON VEL,M/SEC     9870.6   9873.3   9876.1   9878.8   9881.5   9884.2   9886.8   9889.4

 TRANSPORT PROPERTIES (GASES ONLY)
   CONDUCTIVITY IN UNITS OF MILLIWATTS/(CM)(K)

 VISC,MILLIPOISE  0.78350  0.78425  0.78500  0.78575  0.78650  0.78724  0.78798  0.78871

  WITH EQUILIBRIUM REACTIONS

 Cp, KJ/(KG)(K)   24.6019  24.6492  24.6970  24.7453  24.7942  24.8435  24.8934  24.9438
 CONDUCTIVITY     25.4444  25.4788  25.5132  25.5478  25.5823  25.6170  25.6517  25.6864
 PRANDTL NUMBER    0.7576   0.7587   0.7599   0.7611   0.7623   0.7635   0.7647   0.7659

  WITH FROZEN REACTIONS

 Cp, KJ/(KG)(K)   20.6708  20.6714  20.6720  20.6727  20.6733  20.6739  20.6745  20.6751
 CONDUCTIVITY     24.4867  24.5132  24.5397  24.5662  24.5925  24.6188  24.6450  24.6711
 PRANDTL NUMBER    0.6614   0.6613   0.6613   0.6612   0.6612   0.6611   0.6610   0.6610

 MOLE FRACTIONS

 *e-              0.00172  0.00175  0.00177  0.00180  0.00183  0.00185  0.00188  0.00191
 *H               0.99623  0.99618  0.99613  0.99608  0.99603  0.99598  0.99592  0.99587
 *H+              0.00172  0.00175  0.00177  0.00180  0.00183  0.00185  0.00188  0.00191
 *H2              0.00033  0.00032  0.00032  0.00032  0.00032  0.00031  0.00031  0.00031

  * THERMODYNAMIC PROPERTIES FITTED TO 20000.K

 NOTE. WEIGHT FRACTION OF FUEL IN TOTAL FUELS AND OF OXIDANT IN TOTAL OXIDANTS









               THERMODYNAMIC EQUILIBRIUM PROPERTIES AT ASSIGNED

                           TEMPERATURE AND PRESSURE

 CASE =                

             REACTANT                    WT FRACTION      ENERGY      TEMP
                                          (SEE NOTE)     KJ/KG-MOL      K  
             H2                           1.0000000         0.000      0.000

 O/F=    0.00000  %FUEL=100.000000  R,EQ.RATIO= 0.000000  PHI,EQ.RATIO= 0.000000

 THERMODYNAMIC PROPERTIES

 P, BAR           0.67000  0.67000  0.67000  0.67000  0.67000  0.74000  0.74000  0.74000
 T, K             7750.00  7760.00  7770.00  7780.00  7790.00  7650.00  7660.00  7670.00
 RHO, KG/CU M    1.0463-3 1.0449-3 1.0436-3 1.0422-3 1.0408-3 1.1712-3 1.1697-3 1.1681-3
 H, KJ/KG        372654.0 372904.2 373154.9 373406.2 373658.0 370044.7 370288.4 370532.5
 U, KJ/KG        308619.5 308785.1 308951.1 309117.7 309284.7 306862.7 307022.0 307181.8
 G, KJ/KG       -1058656.-1060503.-1062350.-1064198.-1066046.-1033925.-1035760.-1037596.
 S, KJ/(KG)(K)   184.6852 184.7174 184.7497 184.7820 184.8144 183.5254 183.5573 183.5891

 M, (1/n)           1.006    1.006    1.006    1.006    1.006    1.007    1.007    1.007
 (dLV/dLP)t      -1.00128 -1.00129 -1.00130 -1.00131 -1.00132 -1.00117 -1.00117 -1.00118
 (dLV/dLT)p        1.0244   1.0246   1.0249   1.0252   1.0255   1.0211   1.0213   1.0216
 Cp, KJ/(KG)(K)   24.9948  25.0463  25.0983  25.1509  25.2041  24.3437  24.3874  24.4316
 GAMMAs            1.5281   1.5269   1.5257   1.5244   1.5232   1.5446   1.5434   1.5423
 SON VEL,M/SEC     9892.0   9894.6   9897.2   9899.7   9902.2   9878.7   9881.7   9884.6

 TRANSPORT PROPERTIES (GASES ONLY)
   CONDUCTIVITY IN UNITS OF MILLIWATTS/(CM)(K)

 VISC,MILLIPOISE  0.78945  0.79017  0.79090  0.79162  0.79234  0.78270  0.78347  0.78424

  WITH EQUILIBRIUM REACTIONS

 Cp, KJ/(KG)(K)   24.9948  25.0463  25.0983  25.1509  25.2041  24.3437  24.3874  24.4316
 CONDUCTIVITY     25.7213  25.7562  25.7911  25.8261  25.8612  25.3763  25.4101  25.4440
 PRANDTL NUMBER    0.7671   0.7684   0.7697   0.7709   0.7722   0.7508   0.7519   0.7530

  WITH FROZEN REACTIONS

 Cp, KJ/(KG)(K)   20.6758  20.6764  20.6770  20.6777  20.6783  20.6680  20.6685  20.6691
 CONDUCTIVITY     24.6971  24.7231  24.7489  24.7747  24.8004  24.4462  24.4732  24.5001
 PRANDTL NUMBER    0.6609   0.6608   0.6608   0.6607   0.6606   0.6617   0.6617   0.6616

 MOLE FRACTIONS

 *e-              0.00194  0.00197  0.00200  0.00203  0.00206  0.00159  0.00161  0.00164
 *H               0.99582  0.99576  0.99571  0.99565  0.99559  0.99645  0.99641  0.99636
 *H+              0.00194  0.00197  0.00200  0.00203  0.00206  0.00159  0.00161  0.00164
 *H2              0.00030  0.00030  0.00030  0.00030  0.00029  0.00037  0.00037  0.00036

  * THERMODYNAMIC PROPERTIES FITTED TO 20000.K

 NOTE. WEIGHT FRACTION OF FUEL IN TOTAL FUELS AND OF OXIDANT IN TOTAL OXIDANTS









               THERMODYNAMIC EQUILIBRIUM PROPERTIES AT ASSIGNED

                           TEMPERATURE AND PRESSURE

 CASE =                

             REACTANT                    WT FRACTION      ENERGY      TEMP
                                          (SEE NOTE)     KJ/KG-MOL      K  
             H2                           1.0000000         0.000      0.000

 O/F=    0.00000  %FUEL=100.000000  R,EQ.RATIO= 0.000000  PHI,EQ.RATIO= 0.000000

 THERMODYNAMIC PROPERTIES

 P, BAR           0.74000  0.74000  0.74000  0.74000  0.74000  0.74000  0.74000  0.74000
 T, K             7680.00  7690.00  7700.00  7710.00  7720.00  7730.00  7740.00  7750.00
 RHO, KG/CU M    1.1665-3 1.1650-3 1.1634-3 1.1619-3 1.1604-3 1.1588-3 1.1573-3 1.1558-3
 H, KJ/KG        370777.0 371022.0 371267.5 371513.4 371759.7 372006.6 372253.9 372501.7
 U, KJ/KG        307341.9 307502.5 307663.5 307825.0 307986.9 308149.2 308312.0 308475.2
 G, KJ/KG       -1039432.-1041268.-1043105.-1044942.-1046779.-1048617.-1050455.-1052293.
 S, KJ/(KG)(K)   183.6210 183.6528 183.6847 183.7167 183.7486 183.7805 183.8125 183.8445

 M, (1/n)           1.007    1.007    1.007    1.007    1.007    1.006    1.006    1.006
 (dLV/dLP)t      -1.00119 -1.00120 -1.00121 -1.00122 -1.00123 -1.00124 -1.00125 -1.00126
 (dLV/dLT)p        1.0218   1.0220   1.0223   1.0225   1.0228   1.0230   1.0233   1.0235
 Cp, KJ/(KG)(K)   24.4764  24.5216  24.5673  24.6135  24.6603  24.7075  24.7552  24.8035
 GAMMAs            1.5411   1.5400   1.5388   1.5377   1.5365   1.5353   1.5342   1.5330
 SON VEL,M/SEC     9887.5   9890.4   9893.2   9896.1   9898.9   9901.6   9904.4   9907.1

 TRANSPORT PROPERTIES (GASES ONLY)
   CONDUCTIVITY IN UNITS OF MILLIWATTS/(CM)(K)

 VISC,MILLIPOISE  0.78500  0.78577  0.78653  0.78728  0.78804  0.78879  0.78953  0.79028

  WITH EQUILIBRIUM REACTIONS

 Cp, KJ/(KG)(K)   24.4764  24.5216  24.5673  24.6135  24.6603  24.7075  24.7552  24.8035
 CONDUCTIVITY     25.4779  25.5119  25.5460  25.5801  25.6143  25.6485  25.6829  25.7172
 PRANDTL NUMBER    0.7541   0.7553   0.7564   0.7575   0.7587   0.7598   0.7610   0.7622

  WITH FROZEN REACTIONS

 Cp, KJ/(KG)(K)   20.6697  20.6703  20.6709  20.6714  20.6720  20.6726  20.6732  20.6738
 CONDUCTIVITY     24.5269  24.5537  24.5804  24.6070  24.6336  24.6601  24.6865  24.7128
 PRANDTL NUMBER    0.6615   0.6615   0.6614   0.6614   0.6613   0.6612   0.6612   0.6611

 MOLE FRACTIONS

 *e-              0.00166  0.00169  0.00171  0.00174  0.00176  0.00179  0.00182  0.00184
 *H               0.99631  0.99627  0.99622  0.99617  0.99612  0.99607  0.99602  0.99597
 *H+              0.00166  0.00169  0.00171  0.00174  0.00176  0.00179  0.00182  0.00184
 *H2              0.00036  0.00036  0.00035  0.00035  0.00035  0.00034  0.00034  0.00034

  * THERMODYNAMIC PROPERTIES FITTED TO 20000.K

 NOTE. WEIGHT FRACTION OF FUEL IN TOTAL FUELS AND OF OXIDANT IN TOTAL OXIDANTS









               THERMODYNAMIC EQUILIBRIUM PROPERTIES AT ASSIGNED

                           TEMPERATURE AND PRESSURE

 CASE =                

             REACTANT                    WT FRACTION      ENERGY      TEMP
                                          (SEE NOTE)     KJ/KG-MOL      K  
             H2                           1.0000000         0.000      0.000

 O/F=    0.00000  %FUEL=100.000000  R,EQ.RATIO= 0.000000  PHI,EQ.RATIO= 0.000000

 THERMODYNAMIC PROPERTIES

 P, BAR           0.74000  0.74000  0.74000  0.74000  0.82500  0.82500  0.82500  0.82500
 T, K             7760.00  7770.00  7780.00  7790.00  7650.00  7660.00  7670.00  7680.00
 RHO, KG/CU M    1.1542-3 1.1527-3 1.1512-3 1.1497-3 1.3059-3 1.3042-3 1.3024-3 1.3007-3
 H, KJ/KG        372750.0 372998.7 373248.0 373497.8 369902.2 370144.1 370386.5 370629.3
 U, KJ/KG        308639.0 308803.1 308967.8 309132.9 306728.2 306885.9 307043.9 307202.4
 G, KJ/KG       -1054132.-1055971.-1057810.-1059650.-1027055.-1028881.-1030708.-1032535.
 S, KJ/(KG)(K)   183.8765 183.9086 183.9406 183.9727 182.6088 182.6404 182.6720 182.7037

 M, (1/n)           1.006    1.006    1.006    1.006    1.007    1.007    1.007    1.007
 (dLV/dLP)t      -1.00127 -1.00128 -1.00129 -1.00130 -1.00117 -1.00117 -1.00118 -1.00119
 (dLV/dLT)p        1.0238   1.0241   1.0243   1.0246   1.0204   1.0206   1.0209   1.0211
 Cp, KJ/(KG)(K)   24.8523  24.9016  24.9514  25.0017  24.1747  24.2158  24.2574  24.2995
 GAMMAs            1.5318   1.5306   1.5294   1.5282   1.5493   1.5482   1.5471   1.5460
 SON VEL,M/SEC     9909.8   9912.5   9915.1   9917.7   9893.1   9896.2   9899.3   9902.3

 TRANSPORT PROPERTIES (GASES ONLY)
   CONDUCTIVITY IN UNITS OF MILLIWATTS/(CM)(K)

 VISC,MILLIPOISE  0.79102  0.79176  0.79249  0.79322  0.78346  0.78424  0.78502  0.78580

  WITH EQUILIBRIUM REACTIONS

 Cp, KJ/(KG)(K)   24.8523  24.9016  24.9514  25.0017  24.1747  24.2158  24.2574  24.2995
 CONDUCTIVITY     25.7517  25.7862  25.8208  25.8554  25.3807  25.4140  25.4473  25.4807
 PRANDTL NUMBER    0.7634   0.7646   0.7658   0.7670   0.7462   0.7473   0.7483   0.7494

  WITH FROZEN REACTIONS

 Cp, KJ/(KG)(K)   20.6744  20.6750  20.6757  20.6763  20.6662  20.6668  20.6673  20.6679
 CONDUCTIVITY     24.7390  24.7652  24.7913  24.8173  24.4596  24.4868  24.5140  24.5411
 PRANDTL NUMBER    0.6611   0.6610   0.6609   0.6609   0.6620   0.6619   0.6618   0.6618

 MOLE FRACTIONS

 *e-              0.00187  0.00190  0.00193  0.00196  0.00151  0.00153  0.00155  0.00157
 *H               0.99592  0.99587  0.99582  0.99576  0.99658  0.99653  0.99649  0.99645
 *H+              0.00187  0.00190  0.00193  0.00196  0.00151  0.00153  0.00155  0.00157
 *H2              0.00033  0.00033  0.00033  0.00032  0.00041  0.00041  0.00040  0.00040

  * THERMODYNAMIC PROPERTIES FITTED TO 20000.K

 NOTE. WEIGHT FRACTION OF FUEL IN TOTAL FUELS AND OF OXIDANT IN TOTAL OXIDANTS









               THERMODYNAMIC EQUILIBRIUM PROPERTIES AT ASSIGNED

                           TEMPERATURE AND PRESSURE

 CASE =                

             REACTANT                    WT FRACTION      ENERGY      TEMP
                                          (SEE NOTE)     KJ/KG-MOL      K  
             H2                           1.0000000         0.000      0.000

 O/F=    0.00000  %FUEL=100.000000  R,EQ.RATIO= 0.000000  PHI,EQ.RATIO= 0.000000

 THERMODYNAMIC PROPERTIES

 P, BAR           0.82500  0.82500  0.82500  0.82500  0.82500  0.82500  0.82500  0.82500
 T, K             7690.00  7700.00  7710.00  7720.00  7730.00  7740.00  7750.00  7760.00
 RHO, KG/CU M    1.2990-3 1.2973-3 1.2955-3 1.2938-3 1.2921-3 1.2904-3 1.2887-3 1.2870-3
 H, KJ/KG        370872.5 371116.1 371360.2 371604.7 371849.6 372095.0 372340.9 372587.2
 U, KJ/KG        307361.3 307520.5 307680.2 307840.3 308000.8 308161.8 308323.2 308485.0
 G, KJ/KG       -1034362.-1036190.-1038017.-1039846.-1041674.-1043503.-1045332.-1047161.
 S, KJ/(KG)(K)   182.7353 182.7670 182.7987 182.8303 182.8621 182.8938 182.9255 182.9573

 M, (1/n)           1.007    1.007    1.007    1.007    1.007    1.007    1.007    1.007
 (dLV/dLP)t      -1.00120 -1.00121 -1.00121 -1.00122 -1.00123 -1.00124 -1.00125 -1.00126
 (dLV/dLT)p        1.0213   1.0215   1.0217   1.0220   1.0222   1.0224   1.0227   1.0229
 Cp, KJ/(KG)(K)   24.3420  24.3850  24.4284  24.4724  24.5168  24.5618  24.6072  24.6531
 GAMMAs            1.5449   1.5438   1.5426   1.5415   1.5404   1.5392   1.5381   1.5369
 SON VEL,M/SEC     9905.4   9908.4   9911.3   9914.3   9917.2   9920.1   9923.0   9925.8

 TRANSPORT PROPERTIES (GASES ONLY)
   CONDUCTIVITY IN UNITS OF MILLIWATTS/(CM)(K)

 VISC,MILLIPOISE  0.78657  0.78734  0.78811  0.78887  0.78964  0.79040  0.79115  0.79191

  WITH EQUILIBRIUM REACTIONS

 Cp, KJ/(KG)(K)   24.3420  24.3850  24.4284  24.4724  24.5168  24.5618  24.6072  24.6531
 CONDUCTIVITY     25.5142  25.5477  25.5814  25.6150  25.6488  25.6826  25.7165  25.7504
 PRANDTL NUMBER    0.7504   0.7515   0.7526   0.7537   0.7548   0.7559   0.7570   0.7582

  WITH FROZEN REACTIONS

 Cp, KJ/(KG)(K)   20.6684  20.6690  20.6696  20.6701  20.6707  20.6712  20.6718  20.6724
 CONDUCTIVITY     24.5681  24.5951  24.6220  24.6488  24.6756  24.7023  24.7290  24.7555
 PRANDTL NUMBER    0.6617   0.6617   0.6616   0.6615   0.6615   0.6614   0.6614   0.6613

 MOLE FRACTIONS

 *e-              0.00160  0.00162  0.00165  0.00167  0.00170  0.00172  0.00175  0.00177
 *H               0.99641  0.99636  0.99632  0.99627  0.99622  0.99618  0.99613  0.99608
 *H+              0.00160  0.00162  0.00165  0.00167  0.00170  0.00172  0.00175  0.00177
 *H2              0.00040  0.00039  0.00039  0.00039  0.00038  0.00038  0.00037  0.00037

  * THERMODYNAMIC PROPERTIES FITTED TO 20000.K

 NOTE. WEIGHT FRACTION OF FUEL IN TOTAL FUELS AND OF OXIDANT IN TOTAL OXIDANTS









               THERMODYNAMIC EQUILIBRIUM PROPERTIES AT ASSIGNED

                           TEMPERATURE AND PRESSURE

 CASE =                

             REACTANT                    WT FRACTION      ENERGY      TEMP
                                          (SEE NOTE)     KJ/KG-MOL      K  
             H2                           1.0000000         0.000      0.000

 O/F=    0.00000  %FUEL=100.000000  R,EQ.RATIO= 0.000000  PHI,EQ.RATIO= 0.000000

 THERMODYNAMIC PROPERTIES

 P, BAR           0.82500  0.82500  0.82500  0.91000  0.91000  0.91000  0.91000  0.91000
 T, K             7770.00  7780.00  7790.00  7650.00  7660.00  7670.00  7680.00  7690.00
 RHO, KG/CU M    1.2853-3 1.2836-3 1.2819-3 1.4406-3 1.4387-3 1.4368-3 1.4349-3 1.4330-3
 H, KJ/KG        372833.9 373081.2 373328.9 369777.3 370017.8 370258.7 370500.0 370741.7
 U, KJ/KG        308647.2 308809.9 308973.1 306610.5 306766.8 306923.5 307080.5 307237.9
 G, KJ/KG       -1048991.-1050821.-1052651.-1020861.-1022679.-1024497.-1026316.-1028134.
 S, KJ/(KG)(K)   182.9891 183.0209 183.0527 181.7827 181.8142 181.8456 181.8770 181.9085

 M, (1/n)           1.006    1.006    1.006    1.007    1.007    1.007    1.007    1.007
 (dLV/dLP)t      -1.00127 -1.00128 -1.00129 -1.00117 -1.00118 -1.00119 -1.00119 -1.00120
 (dLV/dLT)p        1.0232   1.0234   1.0237   1.0199   1.0201   1.0203   1.0205   1.0207
 Cp, KJ/(KG)(K)   24.6995  24.7464  24.7938  24.0327  24.0715  24.1108  24.1505  24.1907
 GAMMAs            1.5358   1.5346   1.5335   1.5533   1.5523   1.5512   1.5502   1.5491
 SON VEL,M/SEC     9928.6   9931.4   9934.2   9905.5   9908.7   9912.0   9915.1   9918.3

 TRANSPORT PROPERTIES (GASES ONLY)
   CONDUCTIVITY IN UNITS OF MILLIWATTS/(CM)(K)

 VISC,MILLIPOISE  0.79266  0.79340  0.79415  0.78412  0.78491  0.78570  0.78649  0.78727

  WITH EQUILIBRIUM REACTIONS

 Cp, KJ/(KG)(K)   24.6995  24.7464  24.7938  24.0327  24.0715  24.1108  24.1505  24.1907
 CONDUCTIVITY     25.7844  25.8185  25.8527  25.3884  25.4212  25.4540  25.4869  25.5199
 PRANDTL NUMBER    0.7593   0.7605   0.7616   0.7422   0.7432   0.7442   0.7452   0.7463

  WITH FROZEN REACTIONS

 Cp, KJ/(KG)(K)   20.6730  20.6736  20.6741  20.6648  20.6653  20.6658  20.6663  20.6669
 CONDUCTIVITY     24.7820  24.8084  24.8347  24.4710  24.4984  24.5258  24.5531  24.5804
 PRANDTL NUMBER    0.6612   0.6612   0.6611   0.6622   0.6621   0.6620   0.6620   0.6619

 MOLE FRACTIONS

 *e-              0.00180  0.00183  0.00185  0.00143  0.00146  0.00148  0.00150  0.00152
 *H               0.99603  0.99598  0.99593  0.99668  0.99664  0.99660  0.99656  0.99652
 *H+              0.00180  0.00183  0.00185  0.00143  0.00146  0.00148  0.00150  0.00152
 *H2              0.00037  0.00036  0.00036  0.00045  0.00045  0.00045  0.00044  0.00044

  * THERMODYNAMIC PROPERTIES FITTED TO 20000.K

 NOTE. WEIGHT FRACTION OF FUEL IN TOTAL FUELS AND OF OXIDANT IN TOTAL OXIDANTS









               THERMODYNAMIC EQUILIBRIUM PROPERTIES AT ASSIGNED

                           TEMPERATURE AND PRESSURE

 CASE =                

             REACTANT                    WT FRACTION      ENERGY      TEMP
                                          (SEE NOTE)     KJ/KG-MOL      K  
             H2                           1.0000000         0.000      0.000

 O/F=    0.00000  %FUEL=100.000000  R,EQ.RATIO= 0.000000  PHI,EQ.RATIO= 0.000000

 THERMODYNAMIC PROPERTIES

 P, BAR           0.91000  0.91000  0.91000  0.91000  0.91000  0.91000  0.91000  0.91000
 T, K             7700.00  7710.00  7720.00  7730.00  7740.00  7750.00  7760.00  7770.00
 RHO, KG/CU M    1.4311-3 1.4292-3 1.4273-3 1.4254-3 1.4235-3 1.4217-3 1.4198-3 1.4179-3
 H, KJ/KG        370983.8 371226.3 371469.3 371712.6 371956.4 372200.6 372445.2 372690.3
 U, KJ/KG        307395.8 307554.0 307712.5 307871.5 308030.9 308190.7 308350.9 308511.6
 G, KJ/KG       -1029954.-1031773.-1033593.-1035413.-1037234.-1039055.-1040876.-1042697.
 S, KJ/(KG)(K)   181.9399 181.9714 182.0029 182.0344 182.0659 182.0975 182.1290 182.1606

 M, (1/n)           1.007    1.007    1.007    1.007    1.007    1.007    1.007    1.007
 (dLV/dLP)t      -1.00121 -1.00121 -1.00122 -1.00123 -1.00124 -1.00125 -1.00126 -1.00126
 (dLV/dLT)p        1.0209   1.0211   1.0213   1.0216   1.0218   1.0220   1.0222   1.0225
 Cp, KJ/(KG)(K)   24.2313  24.2724  24.3140  24.3560  24.3985  24.4414  24.4849  24.5288
 GAMMAs            1.5480   1.5469   1.5458   1.5447   1.5436   1.5425   1.5414   1.5403
 SON VEL,M/SEC     9921.4   9924.5   9927.6   9930.7   9933.7   9936.7   9939.7   9942.6

 TRANSPORT PROPERTIES (GASES ONLY)
   CONDUCTIVITY IN UNITS OF MILLIWATTS/(CM)(K)

 VISC,MILLIPOISE  0.78805  0.78883  0.78960  0.79038  0.79114  0.79191  0.79268  0.79344

  WITH EQUILIBRIUM REACTIONS

 Cp, KJ/(KG)(K)   24.2313  24.2724  24.3140  24.3560  24.3985  24.4414  24.4849  24.5288
 CONDUCTIVITY     25.5529  25.5861  25.6193  25.6525  25.6859  25.7193  25.7528  25.7863
 PRANDTL NUMBER    0.7473   0.7483   0.7494   0.7504   0.7515   0.7526   0.7536   0.7547

  WITH FROZEN REACTIONS

 Cp, KJ/(KG)(K)   20.6674  20.6679  20.6685  20.6690  20.6696  20.6701  20.6706  20.6712
 CONDUCTIVITY     24.6076  24.6348  24.6619  24.6889  24.7158  24.7427  24.7695  24.7963
 PRANDTL NUMBER    0.6619   0.6618   0.6617   0.6617   0.6616   0.6616   0.6615   0.6614

 MOLE FRACTIONS

 *e-              0.00155  0.00157  0.00159  0.00162  0.00164  0.00166  0.00169  0.00171
 *H               0.99648  0.99643  0.99639  0.99635  0.99630  0.99626  0.99621  0.99617
 *H+              0.00155  0.00157  0.00159  0.00162  0.00164  0.00166  0.00169  0.00171
 *H2              0.00043  0.00043  0.00042  0.00042  0.00042  0.00041  0.00041  0.00041

  * THERMODYNAMIC PROPERTIES FITTED TO 20000.K

 NOTE. WEIGHT FRACTION OF FUEL IN TOTAL FUELS AND OF OXIDANT IN TOTAL OXIDANTS









               THERMODYNAMIC EQUILIBRIUM PROPERTIES AT ASSIGNED

                           TEMPERATURE AND PRESSURE

 CASE =                

             REACTANT                    WT FRACTION      ENERGY      TEMP
                                          (SEE NOTE)     KJ/KG-MOL      K  
             H2                           1.0000000         0.000      0.000

 O/F=    0.00000  %FUEL=100.000000  R,EQ.RATIO= 0.000000  PHI,EQ.RATIO= 0.000000

 THERMODYNAMIC PROPERTIES

 P, BAR           0.91000  0.91000   1.0000   1.0000   1.0000   1.0000   1.0000   1.0000
 T, K             7780.00  7790.00  7650.00  7660.00  7670.00  7680.00  7690.00  7700.00
 RHO, KG/CU M    1.4161-3 1.4142-3 1.5833-3 1.5812-3 1.5791-3 1.5770-3 1.5749-3 1.5728-3
 H, KJ/KG        372935.8 373181.8 369660.0 369899.2 370138.8 370378.8 370619.2 370859.9
 U, KJ/KG        308672.6 308834.1 306500.3 306655.3 306810.7 306966.5 307122.6 307279.1
 G, KJ/KG       -1044519.-1046341.-1014904.-1016714.-1018524.-1020335.-1022146.-1023957.
 S, KJ/(KG)(K)   182.1921 182.2237 180.9887 181.0200 181.0512 181.0825 181.1138 181.1451

 M, (1/n)           1.007    1.007    1.007    1.007    1.007    1.007    1.007    1.007
 (dLV/dLP)t      -1.00127 -1.00128 -1.00118 -1.00119 -1.00120 -1.00120 -1.00121 -1.00121
 (dLV/dLT)p        1.0227   1.0229   1.0195   1.0197   1.0198   1.0200   1.0202   1.0204
 Cp, KJ/(KG)(K)   24.5731  24.6180  23.9052  23.9419  23.9790  24.0166  24.0545  24.0930
 GAMMAs            1.5392   1.5381   1.5571   1.5561   1.5550   1.5540   1.5530   1.5519
 SON VEL,M/SEC     9945.5   9948.4   9916.9   9920.2   9923.6   9926.9   9930.2   9933.5

 TRANSPORT PROPERTIES (GASES ONLY)
   CONDUCTIVITY IN UNITS OF MILLIWATTS/(CM)(K)

 VISC,MILLIPOISE  0.79419  0.79495  0.78474  0.78554  0.78633  0.78713  0.78792  0.78871

  WITH EQUILIBRIUM REACTIONS

 Cp, KJ/(KG)(K)   24.5731  24.6180  23.9052  23.9419  23.9790  24.0166  24.0545  24.0930
 CONDUCTIVITY     25.8199  25.8536  25.3994  25.4316  25.4639  25.4963  25.5288  25.5614
 PRANDTL NUMBER    0.7558   0.7570   0.7386   0.7395   0.7405   0.7414   0.7424   0.7434

  WITH FROZEN REACTIONS

 Cp, KJ/(KG)(K)   20.6718  20.6723  20.6634  20.6639  20.6644  20.6649  20.6654  20.6659
 CONDUCTIVITY     24.8230  24.8496  24.4814  24.5091  24.5367  24.5642  24.5917  24.6191
 PRANDTL NUMBER    0.6614   0.6613   0.6624   0.6623   0.6622   0.6622   0.6621   0.6621

 MOLE FRACTIONS

 *e-              0.00174  0.00176  0.00137  0.00139  0.00141  0.00143  0.00145  0.00147
 *H               0.99612  0.99607  0.99676  0.99673  0.99669  0.99665  0.99661  0.99657
 *H+              0.00174  0.00176  0.00137  0.00139  0.00141  0.00143  0.00145  0.00147
 *H2              0.00040  0.00040  0.00050  0.00049  0.00049  0.00049  0.00048  0.00048

  * THERMODYNAMIC PROPERTIES FITTED TO 20000.K

 NOTE. WEIGHT FRACTION OF FUEL IN TOTAL FUELS AND OF OXIDANT IN TOTAL OXIDANTS









               THERMODYNAMIC EQUILIBRIUM PROPERTIES AT ASSIGNED

                           TEMPERATURE AND PRESSURE

 CASE =                

             REACTANT                    WT FRACTION      ENERGY      TEMP
                                          (SEE NOTE)     KJ/KG-MOL      K  
             H2                           1.0000000         0.000      0.000

 O/F=    0.00000  %FUEL=100.000000  R,EQ.RATIO= 0.000000  PHI,EQ.RATIO= 0.000000

 THERMODYNAMIC PROPERTIES

 P, BAR            1.0000   1.0000   1.0000   1.0000   1.0000   1.0000   1.0000   1.0000
 T, K             7710.00  7720.00  7730.00  7740.00  7750.00  7760.00  7770.00  7780.00
 RHO, KG/CU M    1.5707-3 1.5686-3 1.5666-3 1.5645-3 1.5624-3 1.5604-3 1.5583-3 1.5563-3
 H, KJ/KG        371101.0 371342.6 371584.5 371826.8 372069.5 372312.6 372556.2 372800.1
 U, KJ/KG        307436.0 307593.2 307750.8 307908.8 308067.2 308225.9 308385.1 308544.6
 G, KJ/KG       -1025769.-1027581.-1029393.-1031205.-1033018.-1034831.-1036645.-1038459.
 S, KJ/(KG)(K)   181.1764 181.2077 181.2390 181.2703 181.3016 181.3330 181.3644 181.3957

 M, (1/n)           1.007    1.007    1.007    1.007    1.007    1.007    1.007    1.007
 (dLV/dLP)t      -1.00122 -1.00123 -1.00124 -1.00124 -1.00125 -1.00126 -1.00126 -1.00127
 (dLV/dLT)p        1.0206   1.0208   1.0210   1.0212   1.0214   1.0216   1.0219   1.0221
 Cp, KJ/(KG)(K)   24.1319  24.1712  24.2109  24.2512  24.2918  24.3330  24.3746  24.4166
 GAMMAs            1.5509   1.5498   1.5488   1.5477   1.5467   1.5456   1.5445   1.5434
 SON VEL,M/SEC     9936.7   9939.9   9943.1   9946.2   9949.4   9952.5   9955.5   9958.6

 TRANSPORT PROPERTIES (GASES ONLY)
   CONDUCTIVITY IN UNITS OF MILLIWATTS/(CM)(K)

 VISC,MILLIPOISE  0.78950  0.79028  0.79106  0.79184  0.79262  0.79339  0.79416  0.79493

  WITH EQUILIBRIUM REACTIONS

 Cp, KJ/(KG)(K)   24.1319  24.1712  24.2109  24.2512  24.2918  24.3330  24.3746  24.4166
 CONDUCTIVITY     25.5940  25.6267  25.6595  25.6924  25.7253  25.7583  25.7914  25.8245
 PRANDTL NUMBER    0.7444   0.7454   0.7464   0.7474   0.7485   0.7495   0.7505   0.7516

  WITH FROZEN REACTIONS

 Cp, KJ/(KG)(K)   20.6664  20.6670  20.6675  20.6680  20.6685  20.6690  20.6696  20.6701
 CONDUCTIVITY     24.6465  24.6738  24.7010  24.7282  24.7553  24.7824  24.8093  24.8363
 PRANDTL NUMBER    0.6620   0.6619   0.6619   0.6618   0.6618   0.6617   0.6616   0.6616

 MOLE FRACTIONS

 *e-              0.00150  0.00152  0.00154  0.00156  0.00159  0.00161  0.00163  0.00166
 *H               0.99653  0.99649  0.99645  0.99641  0.99637  0.99633  0.99628  0.99624
 *H+              0.00150  0.00152  0.00154  0.00156  0.00159  0.00161  0.00163  0.00166
 *H2              0.00047  0.00047  0.00046  0.00046  0.00045  0.00045  0.00045  0.00044

  * THERMODYNAMIC PROPERTIES FITTED TO 20000.K

 NOTE. WEIGHT FRACTION OF FUEL IN TOTAL FUELS AND OF OXIDANT IN TOTAL OXIDANTS









               THERMODYNAMIC EQUILIBRIUM PROPERTIES AT ASSIGNED

                           TEMPERATURE AND PRESSURE

 CASE =                

             REACTANT                    WT FRACTION      ENERGY      TEMP
                                          (SEE NOTE)     KJ/KG-MOL      K  
             H2                           1.0000000         0.000      0.000

 O/F=    0.00000  %FUEL=100.000000  R,EQ.RATIO= 0.000000  PHI,EQ.RATIO= 0.000000

 THERMODYNAMIC PROPERTIES

 P, BAR            1.0000   1.1000   1.1000   1.1000   1.1000   1.1000   1.1000   1.1000
 T, K             7790.00  7650.00  7660.00  7670.00  7680.00  7690.00  7700.00  7710.00
 RHO, KG/CU M    1.5542-3 1.7418-3 1.7395-3 1.7372-3 1.7349-3 1.7326-3 1.7303-3 1.7280-3
 H, KJ/KG        373044.5 369543.9 369782.0 370020.3 370259.1 370498.1 370737.6 370977.4
 U, KJ/KG        308704.6 306391.4 306545.3 306699.5 306854.0 307008.9 307164.2 307319.8
 G, KJ/KG       -1040273.-1008884.-1010686.-1012489.-1014291.-1016094.-1017897.-1019701.
 S, KJ/(KG)(K)   181.4271 180.1867 180.2178 180.2489 180.2800 180.3111 180.3422 180.3733

 M, (1/n)           1.007    1.007    1.007    1.007    1.007    1.007    1.007    1.007
 (dLV/dLP)t      -1.00128 -1.00120 -1.00121 -1.00121 -1.00122 -1.00122 -1.00123 -1.00123
 (dLV/dLT)p        1.0223   1.0191   1.0193   1.0194   1.0196   1.0198   1.0200   1.0202
 Cp, KJ/(KG)(K)   24.4591  23.7852  23.8198  23.8548  23.8902  23.9261  23.9624  23.9991
 GAMMAs            1.5423   1.5607   1.5597   1.5587   1.5578   1.5568   1.5558   1.5547
 SON VEL,M/SEC     9961.6   9927.8   9931.3   9934.8   9938.3   9941.7   9945.1   9948.4

 TRANSPORT PROPERTIES (GASES ONLY)
   CONDUCTIVITY IN UNITS OF MILLIWATTS/(CM)(K)

 VISC,MILLIPOISE  0.79570  0.78534  0.78615  0.78695  0.78776  0.78856  0.78936  0.79015

  WITH EQUILIBRIUM REACTIONS

 Cp, KJ/(KG)(K)   24.4591  23.7852  23.8198  23.8548  23.8902  23.9261  23.9624  23.9991
 CONDUCTIVITY     25.8577  25.4142  25.4459  25.4777  25.5095  25.5415  25.5735  25.6056
 PRANDTL NUMBER    0.7527   0.7350   0.7359   0.7368   0.7378   0.7387   0.7396   0.7406

  WITH FROZEN REACTIONS

 Cp, KJ/(KG)(K)   20.6706  20.6621  20.6626  20.6631  20.6636  20.6640  20.6645  20.6650
 CONDUCTIVITY     24.8631  24.4915  24.5194  24.5471  24.5749  24.6025  24.6302  24.6577
 PRANDTL NUMBER    0.6615   0.6625   0.6625   0.6624   0.6624   0.6623   0.6623   0.6622

 MOLE FRACTIONS

 *e-              0.00168  0.00130  0.00132  0.00134  0.00136  0.00138  0.00141  0.00143
 *H               0.99619  0.99684  0.99681  0.99677  0.99674  0.99670  0.99666  0.99663
 *H+              0.00168  0.00130  0.00132  0.00134  0.00136  0.00138  0.00141  0.00143
 *H2              0.00044  0.00055  0.00054  0.00054  0.00053  0.00053  0.00052  0.00052

  * THERMODYNAMIC PROPERTIES FITTED TO 20000.K

 NOTE. WEIGHT FRACTION OF FUEL IN TOTAL FUELS AND OF OXIDANT IN TOTAL OXIDANTS









               THERMODYNAMIC EQUILIBRIUM PROPERTIES AT ASSIGNED

                           TEMPERATURE AND PRESSURE

 CASE =                

             REACTANT                    WT FRACTION      ENERGY      TEMP
                                          (SEE NOTE)     KJ/KG-MOL      K  
             H2                           1.0000000         0.000      0.000

 O/F=    0.00000  %FUEL=100.000000  R,EQ.RATIO= 0.000000  PHI,EQ.RATIO= 0.000000

 THERMODYNAMIC PROPERTIES

 P, BAR            1.1000   1.1000   1.1000   1.1000   1.1000   1.1000   1.1000   1.1000
 T, K             7720.00  7730.00  7740.00  7750.00  7760.00  7770.00  7780.00  7790.00
 RHO, KG/CU M    1.7257-3 1.7234-3 1.7212-3 1.7189-3 1.7166-3 1.7144-3 1.7121-3 1.7099-3
 H, KJ/KG        371217.6 371458.1 371699.0 371940.4 372182.0 372424.1 372666.6 372909.5
 U, KJ/KG        307475.7 307632.0 307788.6 307945.7 308103.0 308260.8 308418.9 308577.5
 G, KJ/KG       -1021505.-1023309.-1025114.-1026918.-1028724.-1030529.-1032335.-1034141.
 S, KJ/(KG)(K)   180.4045 180.4356 180.4668 180.4979 180.5291 180.5603 180.5914 180.6226

 M, (1/n)           1.007    1.007    1.007    1.007    1.007    1.007    1.007    1.007
 (dLV/dLP)t      -1.00124 -1.00125 -1.00125 -1.00126 -1.00126 -1.00127 -1.00128 -1.00129
 (dLV/dLT)p        1.0203   1.0205   1.0207   1.0209   1.0211   1.0213   1.0215   1.0217
 Cp, KJ/(KG)(K)   24.0362  24.0738  24.1118  24.1502  24.1891  24.2284  24.2682  24.3084
 GAMMAs            1.5537   1.5527   1.5517   1.5507   1.5496   1.5486   1.5475   1.5465
 SON VEL,M/SEC     9951.8   9955.1   9958.4   9961.6   9964.9   9968.1   9971.2   9974.4

 TRANSPORT PROPERTIES (GASES ONLY)
   CONDUCTIVITY IN UNITS OF MILLIWATTS/(CM)(K)

 VISC,MILLIPOISE  0.79095  0.79174  0.79252  0.79331  0.79409  0.79487  0.79565  0.79643

  WITH EQUILIBRIUM REACTIONS

 Cp, KJ/(KG)(K)   24.0362  24.0738  24.1118  24.1502  24.1891  24.2284  24.2682  24.3084
 CONDUCTIVITY     25.6378  25.6701  25.7025  25.7349  25.7674  25.8000  25.8326  25.8654
 PRANDTL NUMBER    0.7415   0.7425   0.7435   0.7445   0.7455   0.7465   0.7475   0.7485

  WITH FROZEN REACTIONS

 Cp, KJ/(KG)(K)   20.6655  20.6660  20.6665  20.6670  20.6675  20.6680  20.6685  20.6690
 CONDUCTIVITY     24.6852  24.7127  24.7401  24.7674  24.7947  24.8219  24.8491  24.8762
 PRANDTL NUMBER    0.6621   0.6621   0.6620   0.6620   0.6619   0.6619   0.6618   0.6617

 MOLE FRACTIONS

 *e-              0.00145  0.00147  0.00149  0.00151  0.00154  0.00156  0.00158  0.00161
 *H               0.99659  0.99655  0.99651  0.99647  0.99643  0.99639  0.99635  0.99631
 *H+              0.00145  0.00147  0.00149  0.00151  0.00154  0.00156  0.00158  0.00160
 *H2              0.00051  0.00051  0.00050  0.00050  0.00049  0.00049  0.00049  0.00048

  * THERMODYNAMIC PROPERTIES FITTED TO 20000.K

 NOTE. WEIGHT FRACTION OF FUEL IN TOTAL FUELS AND OF OXIDANT IN TOTAL OXIDANTS









               THERMODYNAMIC EQUILIBRIUM PROPERTIES AT ASSIGNED

                           TEMPERATURE AND PRESSURE

 CASE =                

             REACTANT                    WT FRACTION      ENERGY      TEMP
                                          (SEE NOTE)     KJ/KG-MOL      K  
             H2                           1.0000000         0.000      0.000

 O/F=    0.00000  %FUEL=100.000000  R,EQ.RATIO= 0.000000  PHI,EQ.RATIO= 0.000000

 THERMODYNAMIC PROPERTIES

 P, BAR            1.2000   1.2000   1.2000   1.2000   1.2000   1.2000   1.2000   1.2000
 T, K             7650.00  7660.00  7670.00  7680.00  7690.00  7700.00  7710.00  7720.00
 RHO, KG/CU M    1.9004-3 1.8978-3 1.8953-3 1.8928-3 1.8903-3 1.8878-3 1.8853-3 1.8828-3
 H, KJ/KG        369439.8 369676.8 369914.1 370151.7 370389.7 370628.1 370866.8 371105.8
 U, KJ/KG        306293.9 306446.8 306600.0 306753.5 306907.3 307061.5 307216.0 307370.8
 G, KJ/KG       -1003390.-1005184.-1006979.-1008775.-1010570.-1012366.-1014162.-1015959.
 S, KJ/(KG)(K)   179.4548 179.4858 179.5167 179.5477 179.5787 179.6096 179.6406 179.6716

 M, (1/n)           1.007    1.007    1.007    1.007    1.007    1.007    1.007    1.007
 (dLV/dLP)t      -1.00122 -1.00123 -1.00123 -1.00124 -1.00124 -1.00125 -1.00125 -1.00126
 (dLV/dLT)p        1.0188   1.0190   1.0191   1.0193   1.0195   1.0196   1.0198   1.0200
 Cp, KJ/(KG)(K)   23.6833  23.7160  23.7492  23.7827  23.8167  23.8511  23.8859  23.9211
 GAMMAs            1.5639   1.5629   1.5620   1.5610   1.5601   1.5591   1.5581   1.5571
 SON VEL,M/SEC     9937.3   9941.0   9944.6   9948.1   9951.7   9955.2   9958.7   9962.1

 TRANSPORT PROPERTIES (GASES ONLY)
   CONDUCTIVITY IN UNITS OF MILLIWATTS/(CM)(K)

 VISC,MILLIPOISE  0.78588  0.78670  0.78751  0.78832  0.78913  0.78993  0.79073  0.79154

  WITH EQUILIBRIUM REACTIONS

 Cp, KJ/(KG)(K)   23.6833  23.7160  23.7492  23.7827  23.8167  23.8511  23.8859  23.9211
 CONDUCTIVITY     25.4312  25.4624  25.4937  25.5251  25.5565  25.5881  25.6197  25.6514
 PRANDTL NUMBER    0.7319   0.7327   0.7336   0.7345   0.7354   0.7363   0.7372   0.7381

  WITH FROZEN REACTIONS

 Cp, KJ/(KG)(K)   20.6610  20.6614  20.6619  20.6624  20.6628  20.6633  20.6638  20.6642
 CONDUCTIVITY     24.5004  24.5284  24.5563  24.5842  24.6121  24.6398  24.6676  24.6953
 PRANDTL NUMBER    0.6627   0.6627   0.6626   0.6626   0.6625   0.6624   0.6624   0.6623

 MOLE FRACTIONS

 *e-              0.00125  0.00127  0.00129  0.00131  0.00133  0.00135  0.00137  0.00139
 *H               0.99690  0.99687  0.99684  0.99680  0.99677  0.99674  0.99670  0.99667
 *H+              0.00125  0.00127  0.00129  0.00131  0.00133  0.00135  0.00137  0.00139
 *H2              0.00060  0.00059  0.00059  0.00058  0.00058  0.00057  0.00057  0.00056

  * THERMODYNAMIC PROPERTIES FITTED TO 20000.K

 NOTE. WEIGHT FRACTION OF FUEL IN TOTAL FUELS AND OF OXIDANT IN TOTAL OXIDANTS









               THERMODYNAMIC EQUILIBRIUM PROPERTIES AT ASSIGNED

                           TEMPERATURE AND PRESSURE

 CASE =                

             REACTANT                    WT FRACTION      ENERGY      TEMP
                                          (SEE NOTE)     KJ/KG-MOL      K  
             H2                           1.0000000         0.000      0.000

 O/F=    0.00000  %FUEL=100.000000  R,EQ.RATIO= 0.000000  PHI,EQ.RATIO= 0.000000

 THERMODYNAMIC PROPERTIES

 P, BAR            1.2000   1.2000   1.2000   1.2000   1.2000   1.2000   1.2000   1.3200
 T, K             7730.00  7740.00  7750.00  7760.00  7770.00  7780.00  7790.00  7650.00
 RHO, KG/CU M    1.8803-3 1.8778-3 1.8754-3 1.8729-3 1.8704-3 1.8680-3 1.8655-3 2.0906-3
 H, KJ/KG        371345.2 371584.9 371825.0 372065.5 372306.4 372547.6 372789.2 369327.2
 U, KJ/KG        307526.0 307681.5 307837.4 307993.6 308150.2 308307.1 308464.4 306188.8
 G, KJ/KG       -1017756.-1019553.-1021351.-1023148.-1024946.-1026745.-1028544.-997371.5
 S, KJ/(KG)(K)   179.7026 179.7336 179.7646 179.7956 179.8266 179.8576 179.8887 178.6534

 M, (1/n)           1.007    1.007    1.007    1.007    1.007    1.007    1.007    1.007
 (dLV/dLP)t      -1.00126 -1.00127 -1.00127 -1.00128 -1.00128 -1.00129 -1.00130 -1.00126
 (dLV/dLT)p        1.0202   1.0203   1.0205   1.0207   1.0209   1.0211   1.0213   1.0186
 Cp, KJ/(KG)(K)   23.9567  23.9927  24.0292  24.0661  24.1034  24.1412  24.1793  23.5800
 GAMMAs            1.5562   1.5552   1.5542   1.5532   1.5522   1.5511   1.5501   1.5671
 SON VEL,M/SEC     9965.6   9969.0   9972.3   9975.7   9979.0   9982.3   9985.6   9947.2

 TRANSPORT PROPERTIES (GASES ONLY)
   CONDUCTIVITY IN UNITS OF MILLIWATTS/(CM)(K)

 VISC,MILLIPOISE  0.79233  0.79313  0.79392  0.79471  0.79550  0.79629  0.79707  0.78646

  WITH EQUILIBRIUM REACTIONS

 Cp, KJ/(KG)(K)   23.9567  23.9927  24.0292  24.0661  24.1034  24.1412  24.1793  23.5800
 CONDUCTIVITY     25.6832  25.7150  25.7470  25.7790  25.8111  25.8433  25.8755  25.4541
 PRANDTL NUMBER    0.7391   0.7400   0.7410   0.7419   0.7429   0.7438   0.7448   0.7286

  WITH FROZEN REACTIONS

 Cp, KJ/(KG)(K)   20.6647  20.6652  20.6657  20.6662  20.6666  20.6671  20.6676  20.6598
 CONDUCTIVITY     24.7229  24.7505  24.7780  24.8055  24.8329  24.8602  24.8875  24.5098
 PRANDTL NUMBER    0.6623   0.6622   0.6622   0.6621   0.6620   0.6620   0.6619   0.6629

 MOLE FRACTIONS

 *e-              0.00141  0.00143  0.00145  0.00147  0.00149  0.00151  0.00154  0.00119
 *H               0.99663  0.99659  0.99655  0.99652  0.99648  0.99644  0.99640  0.99696
 *H+              0.00141  0.00143  0.00145  0.00147  0.00149  0.00151  0.00154  0.00119
 *H2              0.00056  0.00055  0.00055  0.00054  0.00053  0.00053  0.00053  0.00066

  * THERMODYNAMIC PROPERTIES FITTED TO 20000.K

 NOTE. WEIGHT FRACTION OF FUEL IN TOTAL FUELS AND OF OXIDANT IN TOTAL OXIDANTS









               THERMODYNAMIC EQUILIBRIUM PROPERTIES AT ASSIGNED

                           TEMPERATURE AND PRESSURE

 CASE =                

             REACTANT                    WT FRACTION      ENERGY      TEMP
                                          (SEE NOTE)     KJ/KG-MOL      K  
             H2                           1.0000000         0.000      0.000

 O/F=    0.00000  %FUEL=100.000000  R,EQ.RATIO= 0.000000  PHI,EQ.RATIO= 0.000000

 THERMODYNAMIC PROPERTIES

 P, BAR            1.3200   1.3200   1.3200   1.3200   1.3200   1.3200   1.3200   1.3200
 T, K             7660.00  7670.00  7680.00  7690.00  7700.00  7710.00  7720.00  7730.00
 RHO, KG/CU M    2.0879-3 2.0851-3 2.0823-3 2.0796-3 2.0768-3 2.0741-3 2.0713-3 2.0686-3
 H, KJ/KG        369563.2 369799.4 370036.0 370272.9 370510.1 370747.6 370985.5 371223.7
 U, KJ/KG        306340.6 306492.8 306645.3 306798.1 306951.2 307104.5 307258.3 307412.3
 G, KJ/KG       -999158.2-1000945.-1002732.-1004520.-1006308.-1008096.-1009885.-1011674.
 S, KJ/(KG)(K)   178.6842 178.7151 178.7459 178.7767 178.8075 178.8384 178.8692 178.9000

 M, (1/n)           1.007    1.007    1.007    1.007    1.007    1.007    1.007    1.007
 (dLV/dLP)t      -1.00126 -1.00126 -1.00126 -1.00127 -1.00127 -1.00128 -1.00128 -1.00128
 (dLV/dLT)p        1.0187   1.0189   1.0190   1.0192   1.0193   1.0195   1.0196   1.0198
 Cp, KJ/(KG)(K)   23.6108  23.6419  23.6735  23.7054  23.7377  23.7705  23.8036  23.8372
 GAMMAs            1.5662   1.5653   1.5644   1.5635   1.5626   1.5616   1.5607   1.5598
 SON VEL,M/SEC     9951.0   9954.7   9958.4   9962.1   9965.7   9969.4   9972.9   9976.5

 TRANSPORT PROPERTIES (GASES ONLY)
   CONDUCTIVITY IN UNITS OF MILLIWATTS/(CM)(K)

 VISC,MILLIPOISE  0.78728  0.78810  0.78892  0.78973  0.79055  0.79136  0.79217  0.79297

  WITH EQUILIBRIUM REACTIONS

 Cp, KJ/(KG)(K)   23.6108  23.6419  23.6735  23.7054  23.7377  23.7705  23.8036  23.8372
 CONDUCTIVITY     25.4847  25.5154  25.5461  25.5770  25.6080  25.6390  25.6701  25.7014
 PRANDTL NUMBER    0.7294   0.7302   0.7311   0.7319   0.7328   0.7337   0.7346   0.7355

  WITH FROZEN REACTIONS

 Cp, KJ/(KG)(K)   20.6602  20.6607  20.6611  20.6616  20.6620  20.6625  20.6629  20.6634
 CONDUCTIVITY     24.5379  24.5660  24.5941  24.6221  24.6500  24.6779  24.7058  24.7336
 PRANDTL NUMBER    0.6629   0.6628   0.6628   0.6627   0.6626   0.6626   0.6625   0.6625

 MOLE FRACTIONS

 *e-              0.00121  0.00123  0.00125  0.00126  0.00128  0.00130  0.00132  0.00134
 *H               0.99693  0.99690  0.99687  0.99684  0.99680  0.99677  0.99674  0.99670
 *H+              0.00121  0.00123  0.00125  0.00126  0.00128  0.00130  0.00132  0.00134
 *H2              0.00065  0.00065  0.00064  0.00063  0.00063  0.00062  0.00062  0.00061

  * THERMODYNAMIC PROPERTIES FITTED TO 20000.K

 NOTE. WEIGHT FRACTION OF FUEL IN TOTAL FUELS AND OF OXIDANT IN TOTAL OXIDANTS









               THERMODYNAMIC EQUILIBRIUM PROPERTIES AT ASSIGNED

                           TEMPERATURE AND PRESSURE

 CASE =                

             REACTANT                    WT FRACTION      ENERGY      TEMP
                                          (SEE NOTE)     KJ/KG-MOL      K  
             H2                           1.0000000         0.000      0.000

 O/F=    0.00000  %FUEL=100.000000  R,EQ.RATIO= 0.000000  PHI,EQ.RATIO= 0.000000

 THERMODYNAMIC PROPERTIES

 P, BAR            1.3200   1.3200   1.3200   1.3200   1.3200   1.3200   1.4800   1.4800
 T, K             7740.00  7750.00  7760.00  7770.00  7780.00  7790.00  7650.00  7660.00
 RHO, KG/CU M    2.0659-3 2.0631-3 2.0604-3 2.0577-3 2.0550-3 2.0523-3 2.3444-3 2.3413-3
 H, KJ/KG        371462.3 371701.1 371940.4 372179.9 372419.9 372660.2 369193.6 369428.4
 U, KJ/KG        307566.6 307721.3 307876.3 308031.6 308187.3 308343.3 306064.4 306215.2
 G, KJ/KG       -1013463.-1015252.-1017042.-1018832.-1020622.-1022413.-990148.3-991925.4
 S, KJ/(KG)(K)   178.9309 178.9617 178.9926 179.0234 179.0543 179.0852 177.6918 177.7224

 M, (1/n)           1.007    1.007    1.007    1.007    1.007    1.007    1.008    1.008
 (dLV/dLP)t      -1.00129 -1.00129 -1.00130 -1.00130 -1.00131 -1.00131 -1.00130 -1.00130
 (dLV/dLT)p        1.0200   1.0201   1.0203   1.0205   1.0207   1.0208   1.0184   1.0185
 Cp, KJ/(KG)(K)   23.8711  23.9055  23.9403  23.9755  24.0111  24.0471  23.4674  23.4958
 GAMMAs            1.5588   1.5579   1.5569   1.5559   1.5549   1.5540   1.5709   1.5700
 SON VEL,M/SEC     9980.0   9983.5   9987.0   9990.5   9993.9   9997.3   9958.3   9962.2

 TRANSPORT PROPERTIES (GASES ONLY)
   CONDUCTIVITY IN UNITS OF MILLIWATTS/(CM)(K)

 VISC,MILLIPOISE  0.79378  0.79458  0.79538  0.79617  0.79697  0.79776  0.78714  0.78797

  WITH EQUILIBRIUM REACTIONS

 Cp, KJ/(KG)(K)   23.8711  23.9055  23.9403  23.9755  24.0111  24.0471  23.4674  23.4958
 CONDUCTIVITY     25.7327  25.7641  25.7955  25.8271  25.8587  25.8904  25.4878  25.5176
 PRANDTL NUMBER    0.7364   0.7373   0.7382   0.7391   0.7400   0.7410   0.7247   0.7255

  WITH FROZEN REACTIONS

 Cp, KJ/(KG)(K)   20.6638  20.6643  20.6648  20.6652  20.6657  20.6662  20.6584  20.6589
 CONDUCTIVITY     24.7614  24.7891  24.8168  24.8444  24.8719  24.8994  24.5206  24.5489
 PRANDTL NUMBER    0.6624   0.6624   0.6623   0.6622   0.6622   0.6621   0.6632   0.6631

 MOLE FRACTIONS

 *e-              0.00136  0.00138  0.00140  0.00142  0.00144  0.00147  0.00112  0.00114
 *H               0.99667  0.99664  0.99660  0.99656  0.99653  0.99649  0.99701  0.99698
 *H+              0.00136  0.00138  0.00140  0.00142  0.00144  0.00147  0.00112  0.00114
 *H2              0.00061  0.00060  0.00059  0.00059  0.00058  0.00058  0.00074  0.00073

  * THERMODYNAMIC PROPERTIES FITTED TO 20000.K

 NOTE. WEIGHT FRACTION OF FUEL IN TOTAL FUELS AND OF OXIDANT IN TOTAL OXIDANTS









               THERMODYNAMIC EQUILIBRIUM PROPERTIES AT ASSIGNED

                           TEMPERATURE AND PRESSURE

 CASE =                

             REACTANT                    WT FRACTION      ENERGY      TEMP
                                          (SEE NOTE)     KJ/KG-MOL      K  
             H2                           1.0000000         0.000      0.000

 O/F=    0.00000  %FUEL=100.000000  R,EQ.RATIO= 0.000000  PHI,EQ.RATIO= 0.000000

 THERMODYNAMIC PROPERTIES

 P, BAR            1.4800   1.4800   1.4800   1.4800   1.4800   1.4800   1.4800   1.4800
 T, K             7670.00  7680.00  7690.00  7700.00  7710.00  7720.00  7730.00  7740.00
 RHO, KG/CU M    2.3382-3 2.3351-3 2.3320-3 2.3289-3 2.3258-3 2.3227-3 2.3197-3 2.3166-3
 H, KJ/KG        369663.5 369898.9 370134.6 370370.6 370606.9 370843.5 371080.4 371317.6
 U, KJ/KG        306366.2 306517.6 306669.2 306821.0 306973.2 307125.7 307278.4 307431.5
 G, KJ/KG       -993702.8-995480.4-997258.4-999036.7-1000815.-1002594.-1004373.-1006153.
 S, KJ/(KG)(K)   177.7531 177.7838 177.8144 177.8451 177.8758 177.9064 177.9371 177.9678

 M, (1/n)           1.008    1.007    1.007    1.007    1.007    1.007    1.007    1.007
 (dLV/dLP)t      -1.00131 -1.00131 -1.00131 -1.00131 -1.00131 -1.00132 -1.00132 -1.00132
 (dLV/dLT)p        1.0187   1.0188   1.0189   1.0191   1.0192   1.0193   1.0195   1.0196
 Cp, KJ/(KG)(K)   23.5247  23.5539  23.5834  23.6134  23.6438  23.6745  23.7056  23.7372
 GAMMAs            1.5692   1.5683   1.5674   1.5665   1.5657   1.5648   1.5639   1.5630
 SON VEL,M/SEC     9966.1   9970.0   9973.8   9977.6   9981.4   9985.2   9988.9   9992.6

 TRANSPORT PROPERTIES (GASES ONLY)
   CONDUCTIVITY IN UNITS OF MILLIWATTS/(CM)(K)

 VISC,MILLIPOISE  0.78879  0.78962  0.79044  0.79127  0.79209  0.79290  0.79372  0.79453

  WITH EQUILIBRIUM REACTIONS

 Cp, KJ/(KG)(K)   23.5247  23.5539  23.5834  23.6134  23.6438  23.6745  23.7056  23.7372
 CONDUCTIVITY     25.5475  25.5775  25.6076  25.6378  25.6681  25.6985  25.7290  25.7596
 PRANDTL NUMBER    0.7263   0.7271   0.7280   0.7288   0.7296   0.7305   0.7313   0.7322

  WITH FROZEN REACTIONS

 Cp, KJ/(KG)(K)   20.6593  20.6597  20.6601  20.6606  20.6610  20.6614  20.6619  20.6623
 CONDUCTIVITY     24.5772  24.6054  24.6336  24.6618  24.6899  24.7179  24.7459  24.7739
 PRANDTL NUMBER    0.6631   0.6630   0.6629   0.6629   0.6628   0.6628   0.6627   0.6627

 MOLE FRACTIONS

 *e-              0.00116  0.00118  0.00119  0.00121  0.00123  0.00125  0.00127  0.00129
 *H               0.99696  0.99693  0.99690  0.99687  0.99684  0.99681  0.99678  0.99675
 *H+              0.00116  0.00118  0.00119  0.00121  0.00123  0.00125  0.00127  0.00129
 *H2              0.00073  0.00072  0.00071  0.00070  0.00070  0.00069  0.00069  0.00068

  * THERMODYNAMIC PROPERTIES FITTED TO 20000.K

 NOTE. WEIGHT FRACTION OF FUEL IN TOTAL FUELS AND OF OXIDANT IN TOTAL OXIDANTS









               THERMODYNAMIC EQUILIBRIUM PROPERTIES AT ASSIGNED

                           TEMPERATURE AND PRESSURE

 CASE =                

             REACTANT                    WT FRACTION      ENERGY      TEMP
                                          (SEE NOTE)     KJ/KG-MOL      K  
             H2                           1.0000000         0.000      0.000

 O/F=    0.00000  %FUEL=100.000000  R,EQ.RATIO= 0.000000  PHI,EQ.RATIO= 0.000000

 THERMODYNAMIC PROPERTIES

 P, BAR            1.4800   1.4800   1.4800   1.4800   1.4800   1.6500   1.6500   1.6500
 T, K             7750.00  7760.00  7770.00  7780.00  7790.00  7650.00  7660.00  7670.00
 RHO, KG/CU M    2.3136-3 2.3105-3 2.3075-3 2.3045-3 2.3015-3 2.6141-3 2.6106-3 2.6071-3
 H, KJ/KG        371555.1 371793.0 372031.2 372269.7 372508.5 369067.6 369301.4 369535.5
 U, KJ/KG        307584.9 307738.5 307892.5 308046.8 308201.4 305947.5 306097.3 306247.4
 G, KJ/KG       -1007933.-1009713.-1011493.-1013274.-1015055.-983284.6-985052.5-986820.7
 S, KJ/(KG)(K)   177.9984 178.0291 178.0598 178.0905 178.1211 176.7781 176.8086 176.8391

 M, (1/n)           1.007    1.007    1.007    1.007    1.007    1.008    1.008    1.008
 (dLV/dLP)t      -1.00133 -1.00133 -1.00133 -1.00134 -1.00134 -1.00136 -1.00136 -1.00136
 (dLV/dLT)p        1.0198   1.0199   1.0201   1.0202   1.0204   1.0183   1.0184   1.0186
 Cp, KJ/(KG)(K)   23.7691  23.8014  23.8341  23.8672  23.9007  23.3719  23.3982  23.4248
 GAMMAs            1.5620   1.5611   1.5602   1.5593   1.5583   1.5742   1.5734   1.5725
 SON VEL,M/SEC     9996.2   9999.9  10003.5  10007.1  10010.6   9968.0   9972.1   9976.1

 TRANSPORT PROPERTIES (GASES ONLY)
   CONDUCTIVITY IN UNITS OF MILLIWATTS/(CM)(K)

 VISC,MILLIPOISE  0.79534  0.79615  0.79696  0.79776  0.79856  0.78777  0.78860  0.78944

  WITH EQUILIBRIUM REACTIONS

 Cp, KJ/(KG)(K)   23.7691  23.8014  23.8341  23.8672  23.9007  23.3719  23.3982  23.4248
 CONDUCTIVITY     25.7903  25.8211  25.8519  25.8829  25.9139  25.5266  25.5556  25.5848
 PRANDTL NUMBER    0.7330   0.7339   0.7348   0.7356   0.7365   0.7213   0.7220   0.7228

  WITH FROZEN REACTIONS

 Cp, KJ/(KG)(K)   20.6627  20.6632  20.6636  20.6640  20.6645  20.6572  20.6576  20.6580
 CONDUCTIVITY     24.8018  24.8297  24.8575  24.8853  24.9130  24.5305  24.5590  24.5874
 PRANDTL NUMBER    0.6626   0.6626   0.6625   0.6624   0.6624   0.6634   0.6633   0.6633

 MOLE FRACTIONS

 *e-              0.00131  0.00132  0.00134  0.00136  0.00138  0.00106  0.00108  0.00110
 *H               0.99672  0.99668  0.99665  0.99662  0.99658  0.99704  0.99702  0.99700
 *H+              0.00130  0.00132  0.00134  0.00136  0.00138  0.00106  0.00108  0.00110
 *H2              0.00067  0.00067  0.00066  0.00065  0.00065  0.00082  0.00082  0.00081

  * THERMODYNAMIC PROPERTIES FITTED TO 20000.K

 NOTE. WEIGHT FRACTION OF FUEL IN TOTAL FUELS AND OF OXIDANT IN TOTAL OXIDANTS









               THERMODYNAMIC EQUILIBRIUM PROPERTIES AT ASSIGNED

                           TEMPERATURE AND PRESSURE

 CASE =                

             REACTANT                    WT FRACTION      ENERGY      TEMP
                                          (SEE NOTE)     KJ/KG-MOL      K  
             H2                           1.0000000         0.000      0.000

 O/F=    0.00000  %FUEL=100.000000  R,EQ.RATIO= 0.000000  PHI,EQ.RATIO= 0.000000

 THERMODYNAMIC PROPERTIES

 P, BAR            1.6500   1.6500   1.6500   1.6500   1.6500   1.6500   1.6500   1.6500
 T, K             7680.00  7690.00  7700.00  7710.00  7720.00  7730.00  7740.00  7750.00
 RHO, KG/CU M    2.6037-3 2.6002-3 2.5968-3 2.5933-3 2.5899-3 2.5865-3 2.5831-3 2.5797-3
 H, KJ/KG        369769.9 370004.6 370239.5 370474.7 370710.2 370946.0 371182.1 371418.4
 U, KJ/KG        306397.7 306548.3 306699.2 306850.3 307001.7 307153.4 307305.3 307457.5
 G, KJ/KG       -988589.3-990358.1-992127.3-993896.7-995666.5-997436.6-999206.9-1000978.
 S, KJ/(KG)(K)   176.8697 176.9002 176.9308 176.9613 176.9918 177.0223 177.0528 177.0834

 M, (1/n)           1.008    1.008    1.008    1.008    1.008    1.008    1.007    1.007
 (dLV/dLP)t      -1.00136 -1.00136 -1.00136 -1.00136 -1.00136 -1.00137 -1.00137 -1.00137
 (dLV/dLT)p        1.0187   1.0188   1.0189   1.0190   1.0192   1.0193   1.0194   1.0195
 Cp, KJ/(KG)(K)   23.4519  23.4793  23.5070  23.5352  23.5637  23.5926  23.6219  23.6515
 GAMMAs            1.5717   1.5709   1.5701   1.5692   1.5684   1.5675   1.5667   1.5658
 SON VEL,M/SEC     9980.2   9984.2   9988.1   9992.0   9996.0   9999.8  10003.7  10007.5

 TRANSPORT PROPERTIES (GASES ONLY)
   CONDUCTIVITY IN UNITS OF MILLIWATTS/(CM)(K)

 VISC,MILLIPOISE  0.79027  0.79110  0.79193  0.79276  0.79359  0.79441  0.79523  0.79605

  WITH EQUILIBRIUM REACTIONS

 Cp, KJ/(KG)(K)   23.4519  23.4793  23.5070  23.5352  23.5637  23.5926  23.6219  23.6515
 CONDUCTIVITY     25.6140  25.6433  25.6728  25.7023  25.7320  25.7618  25.7916  25.8216
 PRANDTL NUMBER    0.7236   0.7243   0.7251   0.7259   0.7267   0.7275   0.7283   0.7291

  WITH FROZEN REACTIONS

 Cp, KJ/(KG)(K)   20.6584  20.6589  20.6593  20.6597  20.6601  20.6605  20.6609  20.6613
 CONDUCTIVITY     24.6158  24.6442  24.6725  24.7007  24.7290  24.7572  24.7853  24.8134
 PRANDTL NUMBER    0.6632   0.6632   0.6631   0.6631   0.6630   0.6630   0.6629   0.6628

 MOLE FRACTIONS

 *e-              0.00111  0.00113  0.00115  0.00116  0.00118  0.00120  0.00122  0.00124
 *H               0.99697  0.99694  0.99692  0.99689  0.99686  0.99683  0.99681  0.99678
 *H+              0.00111  0.00113  0.00115  0.00116  0.00118  0.00120  0.00122  0.00124
 *H2              0.00080  0.00079  0.00079  0.00078  0.00077  0.00076  0.00076  0.00075

  * THERMODYNAMIC PROPERTIES FITTED TO 20000.K

 NOTE. WEIGHT FRACTION OF FUEL IN TOTAL FUELS AND OF OXIDANT IN TOTAL OXIDANTS









               THERMODYNAMIC EQUILIBRIUM PROPERTIES AT ASSIGNED

                           TEMPERATURE AND PRESSURE

 CASE =                

             REACTANT                    WT FRACTION      ENERGY      TEMP
                                          (SEE NOTE)     KJ/KG-MOL      K  
             H2                           1.0000000         0.000      0.000

 O/F=    0.00000  %FUEL=100.000000  R,EQ.RATIO= 0.000000  PHI,EQ.RATIO= 0.000000

 THERMODYNAMIC PROPERTIES

 P, BAR            1.6500   1.6500   1.6500   1.6500   1.8000   1.8000   1.8000   1.8000
 T, K             7760.00  7770.00  7780.00  7790.00  7650.00  7660.00  7670.00  7680.00
 RHO, KG/CU M    2.5763-3 2.5729-3 2.5696-3 2.5662-3 2.8521-3 2.8483-3 2.8445-3 2.8407-3
 H, KJ/KG        371655.1 371892.1 372129.3 372366.9 368966.8 369200.0 369433.4 369667.0
 U, KJ/KG        307610.0 307762.9 307915.9 308069.3 305854.3 306003.5 306152.8 306302.5
 G, KJ/KG       -1002749.-1004520.-1006292.-1008063.-977792.7-979553.3-981314.3-983075.5
 S, KJ/(KG)(K)   177.1139 177.1444 177.1749 177.2054 176.0470 176.0775 176.1079 176.1384

 M, (1/n)           1.007    1.007    1.007    1.007    1.008    1.008    1.008    1.008
 (dLV/dLP)t      -1.00137 -1.00137 -1.00138 -1.00138 -1.00141 -1.00141 -1.00141 -1.00141
 (dLV/dLT)p        1.0197   1.0198   1.0200   1.0201   1.0184   1.0185   1.0186   1.0187
 Cp, KJ/(KG)(K)   23.6816  23.7120  23.7428  23.7740  23.3036  23.3282  23.3531  23.3784
 GAMMAs            1.5649   1.5640   1.5632   1.5623   1.5766   1.5759   1.5751   1.5743
 SON VEL,M/SEC    10011.3  10015.0  10018.8  10022.5   9975.2   9979.4   9983.6   9987.7

 TRANSPORT PROPERTIES (GASES ONLY)
   CONDUCTIVITY IN UNITS OF MILLIWATTS/(CM)(K)

 VISC,MILLIPOISE  0.79687  0.79768  0.79849  0.79930  0.78827  0.78911  0.78995  0.79079

  WITH EQUILIBRIUM REACTIONS

 Cp, KJ/(KG)(K)   23.6816  23.7120  23.7428  23.7740  23.3036  23.3282  23.3531  23.3784
 CONDUCTIVITY     25.8516  25.8818  25.9120  25.9423  25.5629  25.5913  25.6197  25.6483
 PRANDTL NUMBER    0.7300   0.7308   0.7316   0.7325   0.7186   0.7193   0.7201   0.7208

  WITH FROZEN REACTIONS

 Cp, KJ/(KG)(K)   20.6617  20.6621  20.6626  20.6630  20.6563  20.6567  20.6571  20.6575
 CONDUCTIVITY     24.8415  24.8695  24.8975  24.9254  24.5383  24.5668  24.5954  24.6239
 PRANDTL NUMBER    0.6628   0.6627   0.6627   0.6626   0.6636   0.6635   0.6635   0.6634

 MOLE FRACTIONS

 *e-              0.00125  0.00127  0.00129  0.00131  0.00102  0.00103  0.00105  0.00107
 *H               0.99675  0.99672  0.99669  0.99665  0.99706  0.99704  0.99701  0.99699
 *H+              0.00125  0.00127  0.00129  0.00131  0.00102  0.00103  0.00105  0.00107
 *H2              0.00074  0.00074  0.00073  0.00072  0.00090  0.00089  0.00088  0.00087

  * THERMODYNAMIC PROPERTIES FITTED TO 20000.K

 NOTE. WEIGHT FRACTION OF FUEL IN TOTAL FUELS AND OF OXIDANT IN TOTAL OXIDANTS









               THERMODYNAMIC EQUILIBRIUM PROPERTIES AT ASSIGNED

                           TEMPERATURE AND PRESSURE

 CASE =                

             REACTANT                    WT FRACTION      ENERGY      TEMP
                                          (SEE NOTE)     KJ/KG-MOL      K  
             H2                           1.0000000         0.000      0.000

 O/F=    0.00000  %FUEL=100.000000  R,EQ.RATIO= 0.000000  PHI,EQ.RATIO= 0.000000

 THERMODYNAMIC PROPERTIES

 P, BAR            1.8000   1.8000   1.8000   1.8000   1.8000   1.8000   1.8000   1.8000
 T, K             7690.00  7700.00  7710.00  7720.00  7730.00  7740.00  7750.00  7760.00
 RHO, KG/CU M    2.8369-3 2.8332-3 2.8294-3 2.8257-3 2.8220-3 2.8183-3 2.8146-3 2.8109-3
 H, KJ/KG        369901.0 370135.1 370369.6 370604.3 370839.2 371074.5 371310.0 371545.8
 U, KJ/KG        306452.3 306602.4 306752.8 306903.4 307054.3 307205.4 307356.8 307508.5
 G, KJ/KG       -984837.0-986598.9-988361.0-990123.5-991886.2-993649.3-995412.6-997176.3
 S, KJ/(KG)(K)   176.1688 176.1992 176.2296 176.2601 176.2905 176.3209 176.3513 176.3817

 M, (1/n)           1.008    1.008    1.008    1.008    1.008    1.008    1.008    1.008
 (dLV/dLP)t      -1.00141 -1.00141 -1.00141 -1.00141 -1.00141 -1.00141 -1.00141 -1.00141
 (dLV/dLT)p        1.0188   1.0189   1.0190   1.0191   1.0192   1.0193   1.0194   1.0196
 Cp, KJ/(KG)(K)   23.4041  23.4302  23.4566  23.4833  23.5105  23.5380  23.5659  23.5941
 GAMMAs            1.5735   1.5727   1.5719   1.5711   1.5703   1.5695   1.5686   1.5678
 SON VEL,M/SEC     9991.8   9995.9  10000.0  10004.0  10008.0  10012.0  10015.9  10019.8

 TRANSPORT PROPERTIES (GASES ONLY)
   CONDUCTIVITY IN UNITS OF MILLIWATTS/(CM)(K)

 VISC,MILLIPOISE  0.79162  0.79246  0.79329  0.79412  0.79495  0.79578  0.79660  0.79743

  WITH EQUILIBRIUM REACTIONS

 Cp, KJ/(KG)(K)   23.4041  23.4302  23.4566  23.4833  23.5105  23.5380  23.5659  23.5941
 CONDUCTIVITY     25.6770  25.7058  25.7347  25.7637  25.7928  25.8220  25.8514  25.8808
 PRANDTL NUMBER    0.7216   0.7223   0.7231   0.7238   0.7246   0.7254   0.7262   0.7270

  WITH FROZEN REACTIONS

 Cp, KJ/(KG)(K)   20.6579  20.6583  20.6587  20.6590  20.6594  20.6598  20.6602  20.6606
 CONDUCTIVITY     24.6524  24.6808  24.7092  24.7376  24.7659  24.7942  24.8224  24.8506
 PRANDTL NUMBER    0.6634   0.6633   0.6632   0.6632   0.6631   0.6631   0.6630   0.6630

 MOLE FRACTIONS

 *e-              0.00108  0.00110  0.00112  0.00113  0.00115  0.00117  0.00118  0.00120
 *H               0.99697  0.99694  0.99692  0.99689  0.99687  0.99684  0.99681  0.99679
 *H+              0.00108  0.00110  0.00112  0.00113  0.00115  0.00117  0.00118  0.00120
 *H2              0.00087  0.00086  0.00085  0.00084  0.00083  0.00083  0.00082  0.00081

  * THERMODYNAMIC PROPERTIES FITTED TO 20000.K

 NOTE. WEIGHT FRACTION OF FUEL IN TOTAL FUELS AND OF OXIDANT IN TOTAL OXIDANTS









               THERMODYNAMIC EQUILIBRIUM PROPERTIES AT ASSIGNED

                           TEMPERATURE AND PRESSURE

 CASE =                

             REACTANT                    WT FRACTION      ENERGY      TEMP
                                          (SEE NOTE)     KJ/KG-MOL      K  
             H2                           1.0000000         0.000      0.000

 O/F=    0.00000  %FUEL=100.000000  R,EQ.RATIO= 0.000000  PHI,EQ.RATIO= 0.000000

 THERMODYNAMIC PROPERTIES

 P, BAR            1.8000   1.8000   1.8000   2.0000   2.0000   2.0000   2.0000   2.0000
 T, K             7770.00  7780.00  7790.00  7650.00  7660.00  7670.00  7680.00  7690.00
 RHO, KG/CU M    2.8072-3 2.8035-3 2.7998-3 3.1694-3 3.1652-3 3.1610-3 3.1568-3 3.1526-3
 H, KJ/KG        371781.9 372018.2 372254.9 368844.4 369076.8 369309.5 369542.3 369775.4
 U, KJ/KG        307660.4 307812.7 307965.2 305741.5 305889.9 306038.5 306187.4 306336.4
 G, KJ/KG       -998940.3-1000705.-1002469.-971143.7-972895.4-974647.5-976399.9-978152.6
 S, KJ/(KG)(K)   176.4121 176.4425 176.4729 175.1618 175.1922 175.2225 175.2529 175.2832

 M, (1/n)           1.008    1.007    1.007    1.008    1.008    1.008    1.008    1.008
 (dLV/dLP)t      -1.00141 -1.00142 -1.00142 -1.00148 -1.00148 -1.00148 -1.00148 -1.00148
 (dLV/dLT)p        1.0197   1.0198   1.0199   1.0185   1.0186   1.0186   1.0187   1.0188
 Cp, KJ/(KG)(K)   23.6228  23.6518  23.6812  23.2305  23.2531  23.2760  23.2993  23.3229
 GAMMAs            1.5670   1.5661   1.5652   1.5794   1.5787   1.5779   1.5772   1.5765
 SON VEL,M/SEC    10023.7  10027.6  10031.4   9983.2   9987.6   9991.9   9996.2  10000.5

 TRANSPORT PROPERTIES (GASES ONLY)
   CONDUCTIVITY IN UNITS OF MILLIWATTS/(CM)(K)

 VISC,MILLIPOISE  0.79825  0.79907  0.79989  0.78886  0.78971  0.79056  0.79140  0.79225

  WITH EQUILIBRIUM REACTIONS

 Cp, KJ/(KG)(K)   23.6228  23.6518  23.6812  23.2305  23.2531  23.2760  23.2993  23.3229
 CONDUCTIVITY     25.9104  25.9400  25.9697  25.6136  25.6411  25.6687  25.6964  25.7242
 PRANDTL NUMBER    0.7278   0.7286   0.7294   0.7155   0.7162   0.7169   0.7176   0.7183

  WITH FROZEN REACTIONS

 Cp, KJ/(KG)(K)   20.6610  20.6614  20.6618  20.6553  20.6556  20.6560  20.6564  20.6567
 CONDUCTIVITY     24.8787  24.9069  24.9349  24.5475  24.5762  24.6048  24.6335  24.6621
 PRANDTL NUMBER    0.6629   0.6629   0.6628   0.6638   0.6637   0.6637   0.6636   0.6636

 MOLE FRACTIONS

 *e-              0.00122  0.00124  0.00125  0.00097  0.00098  0.00100  0.00101  0.00103
 *H               0.99676  0.99673  0.99670  0.99706  0.99705  0.99702  0.99700  0.99698
 *H+              0.00122  0.00124  0.00125  0.00097  0.00098  0.00100  0.00101  0.00103
 *H2              0.00080  0.00080  0.00079  0.00100  0.00099  0.00098  0.00097  0.00096

  * THERMODYNAMIC PROPERTIES FITTED TO 20000.K

 NOTE. WEIGHT FRACTION OF FUEL IN TOTAL FUELS AND OF OXIDANT IN TOTAL OXIDANTS









               THERMODYNAMIC EQUILIBRIUM PROPERTIES AT ASSIGNED

                           TEMPERATURE AND PRESSURE

 CASE =                

             REACTANT                    WT FRACTION      ENERGY      TEMP
                                          (SEE NOTE)     KJ/KG-MOL      K  
             H2                           1.0000000         0.000      0.000

 O/F=    0.00000  %FUEL=100.000000  R,EQ.RATIO= 0.000000  PHI,EQ.RATIO= 0.000000

 THERMODYNAMIC PROPERTIES

 P, BAR            2.0000   2.0000   2.0000   2.0000   2.0000   2.0000   2.0000   2.0000
 T, K             7700.00  7710.00  7720.00  7730.00  7740.00  7750.00  7760.00  7770.00
 RHO, KG/CU M    3.1485-3 3.1443-3 3.1402-3 3.1360-3 3.1319-3 3.1278-3 3.1237-3 3.1196-3
 H, KJ/KG        370008.8 370242.4 370476.2 370710.3 370944.6 371179.2 371414.1 371649.2
 U, KJ/KG        306485.7 306635.3 306785.0 306935.0 307085.3 307235.8 307386.5 307537.5
 G, KJ/KG       -979905.5-981658.8-983412.4-985166.3-986920.5-988675.0-990429.8-992184.9
 S, KJ/(KG)(K)   175.3135 175.3439 175.3742 175.4045 175.4348 175.4651 175.4953 175.5256

 M, (1/n)           1.008    1.008    1.008    1.008    1.008    1.008    1.008    1.008
 (dLV/dLP)t      -1.00147 -1.00147 -1.00147 -1.00147 -1.00147 -1.00147 -1.00147 -1.00147
 (dLV/dLT)p        1.0189   1.0190   1.0191   1.0192   1.0193   1.0194   1.0195   1.0196
 Cp, KJ/(KG)(K)   23.3469  23.3713  23.3960  23.4210  23.4465  23.4722  23.4984  23.5249
 GAMMAs            1.5757   1.5750   1.5742   1.5734   1.5726   1.5719   1.5711   1.5703
 SON VEL,M/SEC    10004.7  10008.9  10013.1  10017.2  10021.4  10025.5  10029.5  10033.6

 TRANSPORT PROPERTIES (GASES ONLY)
   CONDUCTIVITY IN UNITS OF MILLIWATTS/(CM)(K)

 VISC,MILLIPOISE  0.79309  0.79393  0.79476  0.79560  0.79643  0.79727  0.79810  0.79892

  WITH EQUILIBRIUM REACTIONS

 Cp, KJ/(KG)(K)   23.3469  23.3713  23.3960  23.4210  23.4465  23.4722  23.4984  23.5249
 CONDUCTIVITY     25.7522  25.7803  25.8085  25.8368  25.8652  25.8937  25.9223  25.9511
 PRANDTL NUMBER    0.7190   0.7197   0.7205   0.7212   0.7220   0.7227   0.7235   0.7242

  WITH FROZEN REACTIONS

 Cp, KJ/(KG)(K)   20.6571  20.6575  20.6579  20.6582  20.6586  20.6590  20.6594  20.6598
 CONDUCTIVITY     24.6906  24.7192  24.7477  24.7761  24.8046  24.8329  24.8613  24.8896
 PRANDTL NUMBER    0.6635   0.6635   0.6634   0.6634   0.6633   0.6633   0.6632   0.6632

 MOLE FRACTIONS

 *e-              0.00104  0.00106  0.00107  0.00109  0.00111  0.00112  0.00114  0.00116
 *H               0.99696  0.99694  0.99692  0.99689  0.99687  0.99684  0.99682  0.99679
 *H+              0.00104  0.00106  0.00107  0.00109  0.00111  0.00112  0.00114  0.00116
 *H2              0.00095  0.00094  0.00093  0.00093  0.00092  0.00091  0.00090  0.00089

  * THERMODYNAMIC PROPERTIES FITTED TO 20000.K

 NOTE. WEIGHT FRACTION OF FUEL IN TOTAL FUELS AND OF OXIDANT IN TOTAL OXIDANTS









               THERMODYNAMIC EQUILIBRIUM PROPERTIES AT ASSIGNED

                           TEMPERATURE AND PRESSURE

 CASE =                

             REACTANT                    WT FRACTION      ENERGY      TEMP
                                          (SEE NOTE)     KJ/KG-MOL      K  
             H2                           1.0000000         0.000      0.000

 O/F=    0.00000  %FUEL=100.000000  R,EQ.RATIO= 0.000000  PHI,EQ.RATIO= 0.000000

 THERMODYNAMIC PROPERTIES

 P, BAR            2.0000   2.0000   2.2500   2.2500   2.2500   2.2500   2.2500   2.2500
 T, K             7780.00  7790.00  7650.00  7660.00  7670.00  7680.00  7690.00  7700.00
 RHO, KG/CU M    3.1155-3 3.1114-3 3.5662-3 3.5615-3 3.5568-3 3.5521-3 3.5473-3 3.5427-3
 H, KJ/KG        371884.6 372120.2 368706.1 368937.8 369169.8 369401.9 369634.2 369866.8
 U, KJ/KG        307688.8 307840.3 305614.6 305762.3 305910.2 306058.3 306206.6 306355.1
 G, KJ/KG       -993940.3-995696.0-963711.9-965453.7-967195.9-968938.4-970681.2-972424.3
 S, KJ/(KG)(K)   175.5559 175.5862 174.1723 174.2026 174.2328 174.2631 174.2933 174.3235

 M, (1/n)           1.008    1.008    1.008    1.008    1.008    1.008    1.008    1.008
 (dLV/dLP)t      -1.00147 -1.00147 -1.00158 -1.00158 -1.00157 -1.00157 -1.00157 -1.00156
 (dLV/dLT)p        1.0197   1.0198   1.0188   1.0188   1.0189   1.0189   1.0190   1.0191
 Cp, KJ/(KG)(K)   23.5518  23.5790  23.1617  23.1820  23.2027  23.2237  23.2451  23.2668
 GAMMAs            1.5695   1.5686   1.5822   1.5815   1.5809   1.5802   1.5795   1.5788
 SON VEL,M/SEC    10037.6  10041.5   9991.2   9995.7  10000.2  10004.7  10009.1  10013.6

 TRANSPORT PROPERTIES (GASES ONLY)
   CONDUCTIVITY IN UNITS OF MILLIWATTS/(CM)(K)

 VISC,MILLIPOISE  0.79975  0.80058  0.78953  0.79038  0.79123  0.79208  0.79293  0.79378

  WITH EQUILIBRIUM REACTIONS

 Cp, KJ/(KG)(K)   23.5518  23.5790  23.1617  23.1820  23.2027  23.2237  23.2451  23.2668
 CONDUCTIVITY     25.9799  26.0089  25.6799  25.7063  25.7329  25.7595  25.7863  25.8133
 PRANDTL NUMBER    0.7250   0.7258   0.7121   0.7128   0.7134   0.7141   0.7148   0.7155

  WITH FROZEN REACTIONS

 Cp, KJ/(KG)(K)   20.6601  20.6605  20.6542  20.6545  20.6549  20.6552  20.6556  20.6559
 CONDUCTIVITY     24.9179  24.9461  24.5576  24.5864  24.6152  24.6440  24.6727  24.7014
 PRANDTL NUMBER    0.6631   0.6630   0.6640   0.6640   0.6639   0.6639   0.6638   0.6638

 MOLE FRACTIONS

 *e-              0.00117  0.00119  0.00091  0.00093  0.00094  0.00095  0.00097  0.00098
 *H               0.99677  0.99674  0.99705  0.99703  0.99702  0.99700  0.99698  0.99696
 *H+              0.00117  0.00119  0.00091  0.00093  0.00094  0.00095  0.00097  0.00098
 *H2              0.00088  0.00088  0.00112  0.00111  0.00110  0.00109  0.00108  0.00107

  * THERMODYNAMIC PROPERTIES FITTED TO 20000.K

 NOTE. WEIGHT FRACTION OF FUEL IN TOTAL FUELS AND OF OXIDANT IN TOTAL OXIDANTS









               THERMODYNAMIC EQUILIBRIUM PROPERTIES AT ASSIGNED

                           TEMPERATURE AND PRESSURE

 CASE =                

             REACTANT                    WT FRACTION      ENERGY      TEMP
                                          (SEE NOTE)     KJ/KG-MOL      K  
             H2                           1.0000000         0.000      0.000

 O/F=    0.00000  %FUEL=100.000000  R,EQ.RATIO= 0.000000  PHI,EQ.RATIO= 0.000000

 THERMODYNAMIC PROPERTIES

 P, BAR            2.2500   2.2500   2.2500   2.2500   2.2500   2.2500   2.2500   2.2500
 T, K             7710.00  7720.00  7730.00  7740.00  7750.00  7760.00  7770.00  7780.00
 RHO, KG/CU M    3.5380-3 3.5333-3 3.5286-3 3.5240-3 3.5194-3 3.5147-3 3.5101-3 3.5055-3
 H, KJ/KG        370099.6 370332.6 370565.8 370799.3 371032.9 371266.9 371501.0 371735.4
 U, KJ/KG        306503.8 306652.8 306801.9 306951.3 307100.9 307250.7 307400.7 307551.0
 G, KJ/KG       -974167.7-975911.3-977655.3-979399.6-981144.2-982889.1-984634.3-986379.8
 S, KJ/(KG)(K)   174.3537 174.3839 174.4141 174.4443 174.4745 174.5046 174.5348 174.5649

 M, (1/n)           1.008    1.008    1.008    1.008    1.008    1.008    1.008    1.008
 (dLV/dLP)t      -1.00156 -1.00156 -1.00156 -1.00155 -1.00155 -1.00155 -1.00155 -1.00155
 (dLV/dLT)p        1.0192   1.0192   1.0193   1.0194   1.0195   1.0196   1.0197   1.0198
 Cp, KJ/(KG)(K)   23.2888  23.3113  23.3340  23.3571  23.3806  23.4045  23.4286  23.4532
 GAMMAs            1.5781   1.5774   1.5766   1.5759   1.5752   1.5744   1.5737   1.5729
 SON VEL,M/SEC    10017.9  10022.3  10026.6  10030.9  10035.2  10039.4  10043.6  10047.8

 TRANSPORT PROPERTIES (GASES ONLY)
   CONDUCTIVITY IN UNITS OF MILLIWATTS/(CM)(K)

 VISC,MILLIPOISE  0.79463  0.79547  0.79631  0.79716  0.79799  0.79883  0.79967  0.80050

  WITH EQUILIBRIUM REACTIONS

 Cp, KJ/(KG)(K)   23.2888  23.3113  23.3340  23.3571  23.3806  23.4045  23.4286  23.4532
 CONDUCTIVITY     25.8403  25.8675  25.8948  25.9222  25.9498  25.9775  26.0053  26.0332
 PRANDTL NUMBER    0.7162   0.7169   0.7176   0.7183   0.7190   0.7197   0.7204   0.7212

  WITH FROZEN REACTIONS

 Cp, KJ/(KG)(K)   20.6563  20.6566  20.6570  20.6573  20.6577  20.6580  20.6584  20.6588
 CONDUCTIVITY     24.7301  24.7587  24.7873  24.8159  24.8444  24.8729  24.9014  24.9298
 PRANDTL NUMBER    0.6637   0.6637   0.6636   0.6636   0.6635   0.6635   0.6634   0.6634

 MOLE FRACTIONS

 *e-              0.00100  0.00101  0.00103  0.00104  0.00106  0.00107  0.00109  0.00111
 *H               0.99694  0.99692  0.99690  0.99688  0.99686  0.99684  0.99681  0.99679
 *H+              0.00100  0.00101  0.00103  0.00104  0.00106  0.00107  0.00109  0.00111
 *H2              0.00106  0.00105  0.00104  0.00103  0.00102  0.00101  0.00100  0.00099

  * THERMODYNAMIC PROPERTIES FITTED TO 20000.K

 NOTE. WEIGHT FRACTION OF FUEL IN TOTAL FUELS AND OF OXIDANT IN TOTAL OXIDANTS









               THERMODYNAMIC EQUILIBRIUM PROPERTIES AT ASSIGNED

                           TEMPERATURE AND PRESSURE

 CASE =                

             REACTANT                    WT FRACTION      ENERGY      TEMP
                                          (SEE NOTE)     KJ/KG-MOL      K  
             H2                           1.0000000         0.000      0.000

 O/F=    0.00000  %FUEL=100.000000  R,EQ.RATIO= 0.000000  PHI,EQ.RATIO= 0.000000

 THERMODYNAMIC PROPERTIES

 P, BAR            2.2500
 T, K             7790.00
 RHO, KG/CU M    3.5009-3
 H, KJ/KG        371970.1
 U, KJ/KG        307701.5
 G, KJ/KG       -988125.6
 S, KJ/(KG)(K)   174.5951

 M, (1/n)           1.008
 (dLV/dLP)t      -1.00155
 (dLV/dLT)p        1.0198
 Cp, KJ/(KG)(K)   23.4781
 GAMMAs            1.5722
 SON VEL,M/SEC    10051.9

 TRANSPORT PROPERTIES (GASES ONLY)
   CONDUCTIVITY IN UNITS OF MILLIWATTS/(CM)(K)

 VISC,MILLIPOISE  0.80133

  WITH EQUILIBRIUM REACTIONS

 Cp, KJ/(KG)(K)   23.4781
 CONDUCTIVITY     26.0612
 PRANDTL NUMBER    0.7219

  WITH FROZEN REACTIONS

 Cp, KJ/(KG)(K)   20.6591
 CONDUCTIVITY     24.9582
 PRANDTL NUMBER    0.6633

 MOLE FRACTIONS

 *e-              0.00112
 *H               0.99677
 *H+              0.00112
 *H2              0.00099

  * THERMODYNAMIC PROPERTIES FITTED TO 20000.K

 NOTE. WEIGHT FRACTION OF FUEL IN TOTAL FUELS AND OF OXIDANT IN TOTAL OXIDANTS



  
