
 *******************************************************************************

         NASA-GLENN CHEMICAL EQUILIBRIUM PROGRAM CEA2, MAY 21, 2004
                   BY  BONNIE MCBRIDE AND SANFORD GORDON
      REFS: NASA RP-1311, PART I, 1994 AND NASA RP-1311, PART II, 1996

 *******************************************************************************



  prob tp ions
  p,bar= 0.001,0.0011,0.0012,0.00132,0.00148,0.00165,0.0018,0.002,0.00225,0.0025,
 0.0028,0.0031,0.0035,0.0039,0.0044
  t,k= 4350,4360,4370,4380,4390,4400,4410,4420,4430,4440,4450,4460,4470,4480,4490
  
  reac
  na H2                wt%=100.0000
  
  output short
  output siunits
  output transport
  
 end





               THERMODYNAMIC EQUILIBRIUM PROPERTIES AT ASSIGNED

                           TEMPERATURE AND PRESSURE

 CASE =                

             REACTANT                    WT FRACTION      ENERGY      TEMP
                                          (SEE NOTE)     KJ/KG-MOL      K  
             H2                           1.0000000         0.000      0.000

 O/F=    0.00000  %FUEL=100.000000  R,EQ.RATIO= 0.000000  PHI,EQ.RATIO= 0.000000

 THERMODYNAMIC PROPERTIES

 P, BAR           0.00100  0.00100  0.00100  0.00100  0.00100  0.00100  0.00100  0.00100
 T, K             4350.00  4360.00  4370.00  4380.00  4390.00  4400.00  4410.00  4420.00
 RHO, KG/CU M    2.7872-6 2.7807-6 2.7744-6 2.7680-6 2.7617-6 2.7554-6 2.7492-6 2.7429-6
 H, KJ/KG        299794.0 300002.5 300210.9 300419.3 300627.7 300836.1 301044.4 301252.7
 U, KJ/KG        263915.1 264040.9 264166.8 264292.5 264418.3 264544.0 264669.7 264795.4
 G, KJ/KG       -683576.1-685836.7-688098.0-690359.8-692622.1-694884.9-697148.1-699411.8
 S, KJ/(KG)(K)   226.0621 226.1099 226.1576 226.2053 226.2528 226.3002 226.3475 226.3947

 M, (1/n)           1.008    1.008    1.008    1.008    1.008    1.008    1.008    1.008
 (dLV/dLP)t      -1.00013 -1.00013 -1.00013 -1.00012 -1.00012 -1.00012 -1.00011 -1.00011
 (dLV/dLT)p        1.0018   1.0018   1.0017   1.0017   1.0016   1.0016   1.0016   1.0015
 Cp, KJ/(KG)(K)   20.8489  20.8453  20.8420  20.8390  20.8363  20.8338  20.8317  20.8297
 GAMMAs            1.6581   1.6582   1.6583   1.6584   1.6585   1.6585   1.6586   1.6586
 SON VEL,M/SEC     7713.1   7722.2   7731.3   7740.3   7749.4   7758.3   7767.3   7776.2

 TRANSPORT PROPERTIES (GASES ONLY)
   CONDUCTIVITY IN UNITS OF MILLIWATTS/(CM)(K)

 VISC,MILLIPOISE  0.48449  0.48539  0.48629  0.48719  0.48809  0.48899  0.48989  0.49079

  WITH EQUILIBRIUM REACTIONS

 Cp, KJ/(KG)(K)   20.8489  20.8453  20.8420  20.8390  20.8363  20.8338  20.8317  20.8297
 CONDUCTIVITY     15.1471  15.1706  15.1943  15.2181  15.2421  15.2662  15.2905  15.3149
 PRANDTL NUMBER    0.6669   0.6670   0.6670   0.6671   0.6672   0.6673   0.6674   0.6675

  WITH FROZEN REACTIONS

 Cp, KJ/(KG)(K)   20.6225  20.6225  20.6225  20.6225  20.6225  20.6226  20.6226  20.6226
 CONDUCTIVITY     14.9862  15.0142  15.0422  15.0701  15.0981  15.1260  15.1540  15.1819
 PRANDTL NUMBER    0.6667   0.6667   0.6667   0.6667   0.6667   0.6667   0.6667   0.6667

 MOLE FRACTIONS

 *e-              0.00001  0.00001  0.00001  0.00001  0.00001  0.00001  0.00001  0.00001
 *H               0.99986  0.99986  0.99986  0.99986  0.99987  0.99987  0.99987  0.99987
 *H+              0.00001  0.00001  0.00001  0.00001  0.00001  0.00001  0.00001  0.00001
 *H2              0.00013  0.00012  0.00012  0.00012  0.00011  0.00011  0.00011  0.00010

  * THERMODYNAMIC PROPERTIES FITTED TO 20000.K

 NOTE. WEIGHT FRACTION OF FUEL IN TOTAL FUELS AND OF OXIDANT IN TOTAL OXIDANTS









               THERMODYNAMIC EQUILIBRIUM PROPERTIES AT ASSIGNED

                           TEMPERATURE AND PRESSURE

 CASE =                

             REACTANT                    WT FRACTION      ENERGY      TEMP
                                          (SEE NOTE)     KJ/KG-MOL      K  
             H2                           1.0000000         0.000      0.000

 O/F=    0.00000  %FUEL=100.000000  R,EQ.RATIO= 0.000000  PHI,EQ.RATIO= 0.000000

 THERMODYNAMIC PROPERTIES

 P, BAR           0.00100  0.00100  0.00100  0.00100  0.00100  0.00100  0.00100  0.00110
 T, K             4430.00  4440.00  4450.00  4460.00  4470.00  4480.00  4490.00  4350.00
 RHO, KG/CU M    2.7367-6 2.7306-6 2.7244-6 2.7183-6 2.7122-6 2.7061-6 2.7001-6 3.0659-6
 H, KJ/KG        301461.0 301669.3 301877.5 302085.8 302294.0 302502.3 302710.5 299787.6
 U, KJ/KG        264921.1 265046.8 265172.4 265298.1 265423.8 265549.4 265675.0 263909.1
 G, KJ/KG       -701676.0-703940.7-706205.8-708471.4-710737.5-713004.0-715271.0-680156.2
 S, KJ/(KG)(K)   226.4418 226.4887 226.5356 226.5823 226.6290 226.6755 226.7219 225.2744

 M, (1/n)           1.008    1.008    1.008    1.008    1.008    1.008    1.008    1.008
 (dLV/dLP)t      -1.00011 -1.00010 -1.00010 -1.00010 -1.00010 -1.00010 -1.00009 -1.00014
 (dLV/dLT)p        1.0015   1.0015   1.0015   1.0014   1.0014   1.0014   1.0014   1.0020
 Cp, KJ/(KG)(K)   20.8281  20.8267  20.8256  20.8247  20.8240  20.8237  20.8235  20.8637
 GAMMAs            1.6587   1.6587   1.6587   1.6587   1.6587   1.6587   1.6586   1.6576
 SON VEL,M/SEC     7785.1   7793.9   7802.7   7811.5   7820.2   7829.0   7837.6   7711.9

 TRANSPORT PROPERTIES (GASES ONLY)
   CONDUCTIVITY IN UNITS OF MILLIWATTS/(CM)(K)

 VISC,MILLIPOISE  0.49169  0.49259  0.49348  0.49438  0.49528  0.49617  0.49707  0.48450

  WITH EQUILIBRIUM REACTIONS

 Cp, KJ/(KG)(K)   20.8281  20.8267  20.8256  20.8247  20.8240  20.8237  20.8235  20.8637
 CONDUCTIVITY     15.3395  15.3642  15.3890  15.4139  15.4390  15.4641  15.4894  15.1623
 PRANDTL NUMBER    0.6676   0.6677   0.6678   0.6679   0.6680   0.6681   0.6682   0.6667

  WITH FROZEN REACTIONS

 Cp, KJ/(KG)(K)   20.6226  20.6226  20.6226  20.6227  20.6227  20.6227  20.6227  20.6224
 CONDUCTIVITY     15.2098  15.2377  15.2656  15.2934  15.3213  15.3491  15.3769  14.9864
 PRANDTL NUMBER    0.6667   0.6667   0.6667   0.6667   0.6667   0.6666   0.6666   0.6667

 MOLE FRACTIONS

 *e-              0.00001  0.00001  0.00001  0.00001  0.00001  0.00002  0.00002  0.00001
 *H               0.99987  0.99988  0.99988  0.99988  0.99988  0.99988  0.99988  0.99984
 *H+              0.00001  0.00001  0.00001  0.00001  0.00001  0.00002  0.00002  0.00001
 *H2              0.00010  0.00010  0.00010  0.00009  0.00009  0.00009  0.00009  0.00014

  * THERMODYNAMIC PROPERTIES FITTED TO 20000.K

 NOTE. WEIGHT FRACTION OF FUEL IN TOTAL FUELS AND OF OXIDANT IN TOTAL OXIDANTS









               THERMODYNAMIC EQUILIBRIUM PROPERTIES AT ASSIGNED

                           TEMPERATURE AND PRESSURE

 CASE =                

             REACTANT                    WT FRACTION      ENERGY      TEMP
                                          (SEE NOTE)     KJ/KG-MOL      K  
             H2                           1.0000000         0.000      0.000

 O/F=    0.00000  %FUEL=100.000000  R,EQ.RATIO= 0.000000  PHI,EQ.RATIO= 0.000000

 THERMODYNAMIC PROPERTIES

 P, BAR           0.00110  0.00110  0.00110  0.00110  0.00110  0.00110  0.00110  0.00110
 T, K             4360.00  4370.00  4380.00  4390.00  4400.00  4410.00  4420.00  4430.00
 RHO, KG/CU M    3.0589-6 3.0518-6 3.0449-6 3.0379-6 3.0310-6 3.0241-6 3.0173-6 3.0104-6
 H, KJ/KG        299996.2 300204.8 300413.3 300621.8 300830.3 301038.7 301247.1 301455.5
 U, KJ/KG        264035.1 264161.0 264287.0 264412.8 264538.7 264664.5 264790.3 264916.1
 G, KJ/KG       -682409.2-684662.6-686916.6-689171.0-691425.9-693681.3-695937.1-698193.4
 S, KJ/(KG)(K)   225.3223 225.3701 225.4178 225.4653 225.5128 225.5601 225.6073 225.6544

 M, (1/n)           1.008    1.008    1.008    1.008    1.008    1.008    1.008    1.008
 (dLV/dLP)t      -1.00014 -1.00014 -1.00013 -1.00013 -1.00013 -1.00012 -1.00012 -1.00012
 (dLV/dLT)p        1.0019   1.0019   1.0018   1.0018   1.0017   1.0017   1.0017   1.0016
 Cp, KJ/(KG)(K)   20.8595  20.8555  20.8518  20.8485  20.8454  20.8427  20.8402  20.8379
 GAMMAs            1.6578   1.6579   1.6580   1.6581   1.6582   1.6582   1.6583   1.6584
 SON VEL,M/SEC     7721.1   7730.2   7739.3   7748.4   7757.4   7766.4   7775.4   7784.3

 TRANSPORT PROPERTIES (GASES ONLY)
   CONDUCTIVITY IN UNITS OF MILLIWATTS/(CM)(K)

 VISC,MILLIPOISE  0.48540  0.48630  0.48720  0.48810  0.48900  0.48990  0.49080  0.49170

  WITH EQUILIBRIUM REACTIONS

 Cp, KJ/(KG)(K)   20.8595  20.8555  20.8518  20.8485  20.8454  20.8427  20.8402  20.8379
 CONDUCTIVITY     15.1853  15.2085  15.2319  15.2554  15.2791  15.3030  15.3270  15.3511
 PRANDTL NUMBER    0.6668   0.6669   0.6670   0.6671   0.6672   0.6672   0.6673   0.6674

  WITH FROZEN REACTIONS

 Cp, KJ/(KG)(K)   20.6225  20.6225  20.6225  20.6225  20.6225  20.6225  20.6226  20.6226
 CONDUCTIVITY     15.0144  15.0424  15.0703  15.0983  15.1262  15.1542  15.1821  15.2100
 PRANDTL NUMBER    0.6667   0.6667   0.6667   0.6667   0.6667   0.6667   0.6667   0.6667

 MOLE FRACTIONS

 *e-              0.00001  0.00001  0.00001  0.00001  0.00001  0.00001  0.00001  0.00001
 *H               0.99985  0.99985  0.99985  0.99986  0.99986  0.99986  0.99986  0.99987
 *H+              0.00001  0.00001  0.00001  0.00001  0.00001  0.00001  0.00001  0.00001
 *H2              0.00014  0.00013  0.00013  0.00013  0.00012  0.00012  0.00011  0.00011

  * THERMODYNAMIC PROPERTIES FITTED TO 20000.K

 NOTE. WEIGHT FRACTION OF FUEL IN TOTAL FUELS AND OF OXIDANT IN TOTAL OXIDANTS









               THERMODYNAMIC EQUILIBRIUM PROPERTIES AT ASSIGNED

                           TEMPERATURE AND PRESSURE

 CASE =                

             REACTANT                    WT FRACTION      ENERGY      TEMP
                                          (SEE NOTE)     KJ/KG-MOL      K  
             H2                           1.0000000         0.000      0.000

 O/F=    0.00000  %FUEL=100.000000  R,EQ.RATIO= 0.000000  PHI,EQ.RATIO= 0.000000

 THERMODYNAMIC PROPERTIES

 P, BAR           0.00110  0.00110  0.00110  0.00110  0.00110  0.00110  0.00120  0.00120
 T, K             4440.00  4450.00  4460.00  4470.00  4480.00  4490.00  4350.00  4360.00
 RHO, KG/CU M    3.0037-6 2.9969-6 2.9902-6 2.9835-6 2.9768-6 2.9702-6 3.3447-6 3.3370-6
 H, KJ/KG        301663.9 301872.2 302080.6 302288.9 302497.2 302705.5 299781.2 299990.0
 U, KJ/KG        265041.8 265167.5 265293.3 265419.0 265544.7 265670.4 263903.2 264029.4
 G, KJ/KG       -700450.2-702707.4-704965.1-707223.3-709482.0-711741.1-677034.4-679280.2
 S, KJ/(KG)(K)   225.7014 225.7482 225.7950 225.8417 225.8882 225.9347 224.5553 224.6032

 M, (1/n)           1.008    1.008    1.008    1.008    1.008    1.008    1.008    1.008
 (dLV/dLP)t      -1.00011 -1.00011 -1.00011 -1.00011 -1.00010 -1.00010 -1.00016 -1.00015
 (dLV/dLT)p        1.0016   1.0016   1.0015   1.0015   1.0015   1.0015   1.0021   1.0021
 Cp, KJ/(KG)(K)   20.8360  20.8343  20.8329  20.8317  20.8308  20.8301  20.8789  20.8739
 GAMMAs            1.6584   1.6584   1.6585   1.6585   1.6585   1.6585   1.6571   1.6573
 SON VEL,M/SEC     7793.2   7802.1   7810.9   7819.7   7828.5   7837.2   7710.7   7719.9

 TRANSPORT PROPERTIES (GASES ONLY)
   CONDUCTIVITY IN UNITS OF MILLIWATTS/(CM)(K)

 VISC,MILLIPOISE  0.49260  0.49350  0.49439  0.49529  0.49618  0.49708  0.48451  0.48542

  WITH EQUILIBRIUM REACTIONS

 Cp, KJ/(KG)(K)   20.8360  20.8343  20.8329  20.8317  20.8308  20.8301  20.8789  20.8739
 CONDUCTIVITY     15.3754  15.3999  15.4244  15.4491  15.4740  15.4989  15.1776  15.2001
 PRANDTL NUMBER    0.6675   0.6676   0.6677   0.6679   0.6680   0.6681   0.6665   0.6666

  WITH FROZEN REACTIONS

 Cp, KJ/(KG)(K)   20.6226  20.6226  20.6226  20.6227  20.6227  20.6227  20.6224  20.6224
 CONDUCTIVITY     15.2378  15.2657  15.2936  15.3214  15.3492  15.3770  14.9866  15.0146
 PRANDTL NUMBER    0.6667   0.6667   0.6667   0.6667   0.6667   0.6667   0.6667   0.6667

 MOLE FRACTIONS

 *e-              0.00001  0.00001  0.00001  0.00001  0.00001  0.00001  0.00001  0.00001
 *H               0.99987  0.99987  0.99987  0.99987  0.99987  0.99988  0.99983  0.99983
 *H+              0.00001  0.00001  0.00001  0.00001  0.00001  0.00001  0.00001  0.00001
 *H2              0.00011  0.00011  0.00010  0.00010  0.00010  0.00009  0.00015  0.00015

  * THERMODYNAMIC PROPERTIES FITTED TO 20000.K

 NOTE. WEIGHT FRACTION OF FUEL IN TOTAL FUELS AND OF OXIDANT IN TOTAL OXIDANTS









               THERMODYNAMIC EQUILIBRIUM PROPERTIES AT ASSIGNED

                           TEMPERATURE AND PRESSURE

 CASE =                

             REACTANT                    WT FRACTION      ENERGY      TEMP
                                          (SEE NOTE)     KJ/KG-MOL      K  
             H2                           1.0000000         0.000      0.000

 O/F=    0.00000  %FUEL=100.000000  R,EQ.RATIO= 0.000000  PHI,EQ.RATIO= 0.000000

 THERMODYNAMIC PROPERTIES

 P, BAR           0.00120  0.00120  0.00120  0.00120  0.00120  0.00120  0.00120  0.00120
 T, K             4370.00  4380.00  4390.00  4400.00  4410.00  4420.00  4430.00  4440.00
 RHO, KG/CU M    3.3293-6 3.3217-6 3.3141-6 3.3066-6 3.2991-6 3.2916-6 3.2842-6 3.2767-6
 H, KJ/KG        300198.7 300407.4 300616.0 300824.6 301033.2 301241.7 301450.2 301658.6
 U, KJ/KG        264155.4 264281.5 264407.4 264533.4 264659.3 264785.2 264911.1 265036.9
 G, KJ/KG       -681526.4-683773.2-686020.4-688268.1-690516.3-692764.9-695014.1-697263.7
 S, KJ/(KG)(K)   224.6511 224.6988 224.7463 224.7938 224.8411 224.8884 224.9355 224.9825

 M, (1/n)           1.008    1.008    1.008    1.008    1.008    1.008    1.008    1.008
 (dLV/dLP)t      -1.00015 -1.00014 -1.00014 -1.00014 -1.00013 -1.00013 -1.00013 -1.00012
 (dLV/dLT)p        1.0020   1.0020   1.0019   1.0019   1.0018   1.0018   1.0017   1.0017
 Cp, KJ/(KG)(K)   20.8693  20.8650  20.8611  20.8574  20.8541  20.8510  20.8482  20.8457
 GAMMAs            1.6574   1.6576   1.6577   1.6578   1.6579   1.6580   1.6580   1.6581
 SON VEL,M/SEC     7729.1   7738.3   7747.4   7756.5   7765.5   7774.6   7783.5   7792.5

 TRANSPORT PROPERTIES (GASES ONLY)
   CONDUCTIVITY IN UNITS OF MILLIWATTS/(CM)(K)

 VISC,MILLIPOISE  0.48632  0.48722  0.48812  0.48902  0.48992  0.49081  0.49171  0.49261

  WITH EQUILIBRIUM REACTIONS

 Cp, KJ/(KG)(K)   20.8693  20.8650  20.8611  20.8574  20.8541  20.8510  20.8482  20.8457
 CONDUCTIVITY     15.2228  15.2457  15.2687  15.2920  15.3154  15.3390  15.3628  15.3867
 PRANDTL NUMBER    0.6667   0.6668   0.6669   0.6670   0.6671   0.6672   0.6673   0.6674

  WITH FROZEN REACTIONS

 Cp, KJ/(KG)(K)   20.6224  20.6225  20.6225  20.6225  20.6225  20.6225  20.6226  20.6226
 CONDUCTIVITY     15.0426  15.0705  15.0985  15.1264  15.1543  15.1822  15.2101  15.2380
 PRANDTL NUMBER    0.6667   0.6667   0.6667   0.6667   0.6667   0.6667   0.6667   0.6667

 MOLE FRACTIONS

 *e-              0.00001  0.00001  0.00001  0.00001  0.00001  0.00001  0.00001  0.00001
 *H               0.99984  0.99984  0.99984  0.99985  0.99985  0.99985  0.99986  0.99986
 *H+              0.00001  0.00001  0.00001  0.00001  0.00001  0.00001  0.00001  0.00001
 *H2              0.00014  0.00014  0.00014  0.00013  0.00013  0.00013  0.00012  0.00012

  * THERMODYNAMIC PROPERTIES FITTED TO 20000.K

 NOTE. WEIGHT FRACTION OF FUEL IN TOTAL FUELS AND OF OXIDANT IN TOTAL OXIDANTS









               THERMODYNAMIC EQUILIBRIUM PROPERTIES AT ASSIGNED

                           TEMPERATURE AND PRESSURE

 CASE =                

             REACTANT                    WT FRACTION      ENERGY      TEMP
                                          (SEE NOTE)     KJ/KG-MOL      K  
             H2                           1.0000000         0.000      0.000

 O/F=    0.00000  %FUEL=100.000000  R,EQ.RATIO= 0.000000  PHI,EQ.RATIO= 0.000000

 THERMODYNAMIC PROPERTIES

 P, BAR           0.00120  0.00120  0.00120  0.00120  0.00120  0.00132  0.00132  0.00132
 T, K             4450.00  4460.00  4470.00  4480.00  4490.00  4350.00  4360.00  4370.00
 RHO, KG/CU M    3.2694-6 3.2620-6 3.2547-6 3.2474-6 3.2402-6 3.6792-6 3.6707-6 3.6623-6
 H, KJ/KG        301867.1 302075.5 302283.9 302492.3 302700.7 299773.7 299982.6 300191.5
 U, KJ/KG        265162.8 265288.6 265414.4 265540.1 265665.9 263896.2 264022.5 264148.8
 G, KJ/KG       -699513.7-701764.2-704015.2-706266.7-708518.6-673614.9-675852.8-678091.2
 S, KJ/(KG)(K)   225.0294 225.0762 225.1229 225.1694 225.2159 223.7675 223.8155 223.8633

 M, (1/n)           1.008    1.008    1.008    1.008    1.008    1.008    1.008    1.008
 (dLV/dLP)t      -1.00012 -1.00012 -1.00012 -1.00011 -1.00011 -1.00017 -1.00017 -1.00016
 (dLV/dLT)p        1.0017   1.0016   1.0016   1.0016   1.0015   1.0023   1.0022   1.0022
 Cp, KJ/(KG)(K)   20.8435  20.8416  20.8399  20.8385  20.8373  20.8973  20.8916  20.8863
 GAMMAs            1.6582   1.6582   1.6582   1.6582   1.6583   1.6565   1.6567   1.6569
 SON VEL,M/SEC     7801.4   7810.3   7819.1   7827.9   7836.7   7709.2   7718.5   7727.8

 TRANSPORT PROPERTIES (GASES ONLY)
   CONDUCTIVITY IN UNITS OF MILLIWATTS/(CM)(K)

 VISC,MILLIPOISE  0.49351  0.49440  0.49530  0.49620  0.49709  0.48453  0.48543  0.48633

  WITH EQUILIBRIUM REACTIONS

 Cp, KJ/(KG)(K)   20.8435  20.8416  20.8399  20.8385  20.8373  20.8973  20.8916  20.8863
 CONDUCTIVITY     15.4108  15.4350  15.4593  15.4838  15.5084  15.1959  15.2178  15.2399
 PRANDTL NUMBER    0.6675   0.6676   0.6677   0.6678   0.6679   0.6663   0.6664   0.6665

  WITH FROZEN REACTIONS

 Cp, KJ/(KG)(K)   20.6226  20.6226  20.6226  20.6226  20.6227  20.6224  20.6224  20.6224
 CONDUCTIVITY     15.2659  15.2937  15.3216  15.3494  15.3772  14.9868  15.0148  15.0428
 PRANDTL NUMBER    0.6667   0.6667   0.6667   0.6667   0.6667   0.6667   0.6667   0.6667

 MOLE FRACTIONS

 *e-              0.00001  0.00001  0.00001  0.00001  0.00001  0.00001  0.00001  0.00001
 *H               0.99986  0.99986  0.99986  0.99987  0.99987  0.99982  0.99982  0.99982
 *H+              0.00001  0.00001  0.00001  0.00001  0.00001  0.00001  0.00001  0.00001
 *H2              0.00012  0.00011  0.00011  0.00011  0.00010  0.00017  0.00016  0.00016

  * THERMODYNAMIC PROPERTIES FITTED TO 20000.K

 NOTE. WEIGHT FRACTION OF FUEL IN TOTAL FUELS AND OF OXIDANT IN TOTAL OXIDANTS









               THERMODYNAMIC EQUILIBRIUM PROPERTIES AT ASSIGNED

                           TEMPERATURE AND PRESSURE

 CASE =                

             REACTANT                    WT FRACTION      ENERGY      TEMP
                                          (SEE NOTE)     KJ/KG-MOL      K  
             H2                           1.0000000         0.000      0.000

 O/F=    0.00000  %FUEL=100.000000  R,EQ.RATIO= 0.000000  PHI,EQ.RATIO= 0.000000

 THERMODYNAMIC PROPERTIES

 P, BAR           0.00132  0.00132  0.00132  0.00132  0.00132  0.00132  0.00132  0.00132
 T, K             4380.00  4390.00  4400.00  4410.00  4420.00  4430.00  4440.00  4450.00
 RHO, KG/CU M    3.6539-6 3.6456-6 3.6373-6 3.6290-6 3.6208-6 3.6126-6 3.6045-6 3.5963-6
 H, KJ/KG        300400.3 300609.1 300817.9 301026.6 301235.2 301443.9 301652.4 301861.0
 U, KJ/KG        264274.9 264401.1 264527.2 264653.2 264779.2 264905.2 265031.2 265157.1
 G, KJ/KG       -680330.1-682569.4-684809.2-687049.5-689290.3-691531.5-693773.3-696015.4
 S, KJ/(KG)(K)   223.9110 223.9587 224.0062 224.0535 224.1008 224.1479 224.1950 224.2419

 M, (1/n)           1.008    1.008    1.008    1.008    1.008    1.008    1.008    1.008
 (dLV/dLP)t      -1.00016 -1.00015 -1.00015 -1.00015 -1.00014 -1.00014 -1.00014 -1.00013
 (dLV/dLT)p        1.0021   1.0021   1.0020   1.0020   1.0019   1.0019   1.0018   1.0018
 Cp, KJ/(KG)(K)   20.8813  20.8766  20.8722  20.8682  20.8644  20.8610  20.8579  20.8550
 GAMMAs            1.6570   1.6572   1.6573   1.6574   1.6575   1.6576   1.6577   1.6578
 SON VEL,M/SEC     7737.0   7746.2   7755.3   7764.4   7773.5   7782.5   7791.5   7800.5

 TRANSPORT PROPERTIES (GASES ONLY)
   CONDUCTIVITY IN UNITS OF MILLIWATTS/(CM)(K)

 VISC,MILLIPOISE  0.48723  0.48813  0.48903  0.48993  0.49083  0.49173  0.49262  0.49352

  WITH EQUILIBRIUM REACTIONS

 Cp, KJ/(KG)(K)   20.8813  20.8766  20.8722  20.8682  20.8644  20.8610  20.8579  20.8550
 CONDUCTIVITY     15.2623  15.2848  15.3075  15.3305  15.3536  15.3769  15.4003  15.4240
 PRANDTL NUMBER    0.6666   0.6667   0.6668   0.6669   0.6670   0.6671   0.6672   0.6673

  WITH FROZEN REACTIONS

 Cp, KJ/(KG)(K)   20.6224  20.6224  20.6225  20.6225  20.6225  20.6225  20.6225  20.6226
 CONDUCTIVITY     15.0708  15.0987  15.1266  15.1545  15.1825  15.2103  15.2382  15.2661
 PRANDTL NUMBER    0.6667   0.6667   0.6667   0.6667   0.6667   0.6667   0.6667   0.6667

 MOLE FRACTIONS

 *e-              0.00001  0.00001  0.00001  0.00001  0.00001  0.00001  0.00001  0.00001
 *H               0.99983  0.99983  0.99984  0.99984  0.99984  0.99984  0.99985  0.99985
 *H+              0.00001  0.00001  0.00001  0.00001  0.00001  0.00001  0.00001  0.00001
 *H2              0.00015  0.00015  0.00015  0.00014  0.00014  0.00013  0.00013  0.00013

  * THERMODYNAMIC PROPERTIES FITTED TO 20000.K

 NOTE. WEIGHT FRACTION OF FUEL IN TOTAL FUELS AND OF OXIDANT IN TOTAL OXIDANTS









               THERMODYNAMIC EQUILIBRIUM PROPERTIES AT ASSIGNED

                           TEMPERATURE AND PRESSURE

 CASE =                

             REACTANT                    WT FRACTION      ENERGY      TEMP
                                          (SEE NOTE)     KJ/KG-MOL      K  
             H2                           1.0000000         0.000      0.000

 O/F=    0.00000  %FUEL=100.000000  R,EQ.RATIO= 0.000000  PHI,EQ.RATIO= 0.000000

 THERMODYNAMIC PROPERTIES

 P, BAR           0.00132  0.00132  0.00132  0.00132  0.00148  0.00148  0.00148  0.00148
 T, K             4460.00  4470.00  4480.00  4490.00  4350.00  4360.00  4370.00  4380.00
 RHO, KG/CU M    3.5883-6 3.5802-6 3.5722-6 3.5643-6 4.1252-6 4.1158-6 4.1063-6 4.0969-6
 H, KJ/KG        302069.6 302278.1 302486.6 302695.0 299763.7 299972.9 300182.0 300391.1
 U, KJ/KG        265283.0 265408.9 265534.8 265660.6 263887.0 264013.5 264140.0 264266.3
 G, KJ/KG       -698258.1-700501.2-702744.8-704988.9-669510.2-671738.6-673967.6-676197.0
 S, KJ/(KG)(K)   224.2887 224.3354 224.3820 224.4285 222.8216 222.8696 222.9175 222.9653

 M, (1/n)           1.008    1.008    1.008    1.008    1.008    1.008    1.008    1.008
 (dLV/dLP)t      -1.00013 -1.00013 -1.00012 -1.00012 -1.00019 -1.00019 -1.00018 -1.00018
 (dLV/dLT)p        1.0018   1.0017   1.0017   1.0017   1.0026   1.0025   1.0024   1.0024
 Cp, KJ/(KG)(K)   20.8525  20.8502  20.8482  20.8465  20.9224  20.9157  20.9093  20.9034
 GAMMAs            1.6579   1.6579   1.6580   1.6580   1.6557   1.6559   1.6561   1.6563
 SON VEL,M/SEC     7809.4   7818.3   7827.2   7836.0   7707.2   7716.6   7725.9   7735.2

 TRANSPORT PROPERTIES (GASES ONLY)
   CONDUCTIVITY IN UNITS OF MILLIWATTS/(CM)(K)

 VISC,MILLIPOISE  0.49442  0.49531  0.49621  0.49710  0.48455  0.48545  0.48635  0.48725

  WITH EQUILIBRIUM REACTIONS

 Cp, KJ/(KG)(K)   20.8525  20.8502  20.8482  20.8465  20.9224  20.9157  20.9093  20.9034
 CONDUCTIVITY     15.4478  15.4717  15.4958  15.5200  15.2204  15.2415  15.2629  15.2845
 PRANDTL NUMBER    0.6674   0.6675   0.6676   0.6677   0.6661   0.6662   0.6663   0.6664

  WITH FROZEN REACTIONS

 Cp, KJ/(KG)(K)   20.6226  20.6226  20.6226  20.6226  20.6223  20.6223  20.6224  20.6224
 CONDUCTIVITY     15.2939  15.3217  15.3496  15.3774  14.9872  15.0151  15.0431  15.0711
 PRANDTL NUMBER    0.6667   0.6667   0.6667   0.6667   0.6667   0.6667   0.6667   0.6667

 MOLE FRACTIONS

 *e-              0.00001  0.00001  0.00001  0.00001  0.00001  0.00001  0.00001  0.00001
 *H               0.99985  0.99986  0.99986  0.99986  0.99980  0.99980  0.99981  0.99981
 *H+              0.00001  0.00001  0.00001  0.00001  0.00001  0.00001  0.00001  0.00001
 *H2              0.00012  0.00012  0.00012  0.00011  0.00019  0.00018  0.00018  0.00017

  * THERMODYNAMIC PROPERTIES FITTED TO 20000.K

 NOTE. WEIGHT FRACTION OF FUEL IN TOTAL FUELS AND OF OXIDANT IN TOTAL OXIDANTS









               THERMODYNAMIC EQUILIBRIUM PROPERTIES AT ASSIGNED

                           TEMPERATURE AND PRESSURE

 CASE =                

             REACTANT                    WT FRACTION      ENERGY      TEMP
                                          (SEE NOTE)     KJ/KG-MOL      K  
             H2                           1.0000000         0.000      0.000

 O/F=    0.00000  %FUEL=100.000000  R,EQ.RATIO= 0.000000  PHI,EQ.RATIO= 0.000000

 THERMODYNAMIC PROPERTIES

 P, BAR           0.00148  0.00148  0.00148  0.00148  0.00148  0.00148  0.00148  0.00148
 T, K             4390.00  4400.00  4410.00  4420.00  4430.00  4440.00  4450.00  4460.00
 RHO, KG/CU M    4.0876-6 4.0783-6 4.0690-6 4.0598-6 4.0506-6 4.0414-6 4.0323-6 4.0233-6
 H, KJ/KG        300600.1 300809.0 301017.9 301226.8 301435.6 301644.3 301853.1 302061.8
 U, KJ/KG        264392.7 264519.0 264645.2 264771.4 264897.6 265023.7 265149.8 265275.8
 G, KJ/KG       -678426.9-680657.2-682888.1-685119.4-687351.2-689583.4-691816.2-694049.4
 S, KJ/(KG)(K)   223.0130 223.0605 223.1079 223.1552 223.2024 223.2495 223.2965 223.3433

 M, (1/n)           1.008    1.008    1.008    1.008    1.008    1.008    1.008    1.008
 (dLV/dLP)t      -1.00017 -1.00017 -1.00016 -1.00016 -1.00016 -1.00015 -1.00015 -1.00014
 (dLV/dLT)p        1.0023   1.0022   1.0022   1.0021   1.0021   1.0020   1.0020   1.0019
 Cp, KJ/(KG)(K)   20.8977  20.8925  20.8875  20.8829  20.8787  20.8747  20.8711  20.8677
 GAMMAs            1.6565   1.6567   1.6568   1.6569   1.6571   1.6572   1.6573   1.6574
 SON VEL,M/SEC     7744.5   7753.7   7762.9   7772.0   7781.2   7790.2   7799.2   7808.2

 TRANSPORT PROPERTIES (GASES ONLY)
   CONDUCTIVITY IN UNITS OF MILLIWATTS/(CM)(K)

 VISC,MILLIPOISE  0.48815  0.48905  0.48995  0.49085  0.49175  0.49264  0.49354  0.49444

  WITH EQUILIBRIUM REACTIONS

 Cp, KJ/(KG)(K)   20.8977  20.8925  20.8875  20.8829  20.8787  20.8747  20.8711  20.8677
 CONDUCTIVITY     15.3063  15.3283  15.3506  15.3731  15.3957  15.4186  15.4416  15.4648
 PRANDTL NUMBER    0.6665   0.6666   0.6667   0.6668   0.6669   0.6670   0.6671   0.6672

  WITH FROZEN REACTIONS

 Cp, KJ/(KG)(K)   20.6224  20.6224  20.6224  20.6225  20.6225  20.6225  20.6225  20.6225
 CONDUCTIVITY     15.0990  15.1269  15.1548  15.1827  15.2106  15.2385  15.2663  15.2942
 PRANDTL NUMBER    0.6667   0.6667   0.6667   0.6667   0.6667   0.6667   0.6667   0.6667

 MOLE FRACTIONS

 *e-              0.00001  0.00001  0.00001  0.00001  0.00001  0.00001  0.00001  0.00001
 *H               0.99981  0.99982  0.99982  0.99983  0.99983  0.99983  0.99984  0.99984
 *H+              0.00001  0.00001  0.00001  0.00001  0.00001  0.00001  0.00001  0.00001
 *H2              0.00017  0.00016  0.00016  0.00015  0.00015  0.00015  0.00014  0.00014

  * THERMODYNAMIC PROPERTIES FITTED TO 20000.K

 NOTE. WEIGHT FRACTION OF FUEL IN TOTAL FUELS AND OF OXIDANT IN TOTAL OXIDANTS









               THERMODYNAMIC EQUILIBRIUM PROPERTIES AT ASSIGNED

                           TEMPERATURE AND PRESSURE

 CASE =                

             REACTANT                    WT FRACTION      ENERGY      TEMP
                                          (SEE NOTE)     KJ/KG-MOL      K  
             H2                           1.0000000         0.000      0.000

 O/F=    0.00000  %FUEL=100.000000  R,EQ.RATIO= 0.000000  PHI,EQ.RATIO= 0.000000

 THERMODYNAMIC PROPERTIES

 P, BAR           0.00148  0.00148  0.00148  0.00165  0.00165  0.00165  0.00165  0.00165
 T, K             4470.00  4480.00  4490.00  4350.00  4360.00  4370.00  4380.00  4390.00
 RHO, KG/CU M    4.0143-6 4.0053-6 3.9963-6 4.5992-6 4.5886-6 4.5781-6 4.5676-6 4.5572-6
 H, KJ/KG        302270.4 302479.1 302687.7 299753.2 299962.6 300172.0 300381.3 300590.5
 U, KJ/KG        265401.8 265527.8 265653.8 263877.3 264004.0 264130.7 264257.3 264383.9
 G, KJ/KG       -696283.0-698517.2-700751.8-665609.2-667828.7-670048.6-672269.1-674490.0
 S, KJ/(KG)(K)   223.3900 223.4367 223.4832 221.9224 221.9705 222.0185 222.0663 222.1140

 M, (1/n)           1.008    1.008    1.008    1.008    1.008    1.008    1.008    1.008
 (dLV/dLP)t      -1.00014 -1.00014 -1.00013 -1.00021 -1.00021 -1.00020 -1.00020 -1.00019
 (dLV/dLT)p        1.0019   1.0019   1.0018   1.0028   1.0028   1.0027   1.0026   1.0025
 Cp, KJ/(KG)(K)   20.8647  20.8619  20.8595  20.9495  20.9417  20.9343  20.9273  20.9207
 GAMMAs            1.6575   1.6575   1.6576   1.6548   1.6551   1.6553   1.6555   1.6557
 SON VEL,M/SEC     7817.2   7826.1   7835.0   7705.0   7714.5   7723.9   7733.3   7742.7

 TRANSPORT PROPERTIES (GASES ONLY)
   CONDUCTIVITY IN UNITS OF MILLIWATTS/(CM)(K)

 VISC,MILLIPOISE  0.49533  0.49623  0.49712  0.48458  0.48548  0.48638  0.48728  0.48817

  WITH EQUILIBRIUM REACTIONS

 Cp, KJ/(KG)(K)   20.8647  20.8619  20.8595  20.9495  20.9417  20.9343  20.9273  20.9207
 CONDUCTIVITY     15.4882  15.5118  15.5355  15.2465  15.2668  15.2873  15.3081  15.3292
 PRANDTL NUMBER    0.6673   0.6674   0.6675   0.6658   0.6659   0.6660   0.6661   0.6662

  WITH FROZEN REACTIONS

 Cp, KJ/(KG)(K)   20.6226  20.6226  20.6226  20.6223  20.6223  20.6223  20.6223  20.6224
 CONDUCTIVITY     15.3220  15.3498  15.3776  14.9875  15.0155  15.0434  15.0714  15.0993
 PRANDTL NUMBER    0.6667   0.6667   0.6667   0.6668   0.6668   0.6667   0.6667   0.6667

 MOLE FRACTIONS

 *e-              0.00001  0.00001  0.00001  0.00001  0.00001  0.00001  0.00001  0.00001
 *H               0.99984  0.99984  0.99985  0.99978  0.99978  0.99979  0.99979  0.99980
 *H+              0.00001  0.00001  0.00001  0.00001  0.00001  0.00001  0.00001  0.00001
 *H2              0.00013  0.00013  0.00013  0.00021  0.00020  0.00020  0.00019  0.00019

  * THERMODYNAMIC PROPERTIES FITTED TO 20000.K

 NOTE. WEIGHT FRACTION OF FUEL IN TOTAL FUELS AND OF OXIDANT IN TOTAL OXIDANTS









               THERMODYNAMIC EQUILIBRIUM PROPERTIES AT ASSIGNED

                           TEMPERATURE AND PRESSURE

 CASE =                

             REACTANT                    WT FRACTION      ENERGY      TEMP
                                          (SEE NOTE)     KJ/KG-MOL      K  
             H2                           1.0000000         0.000      0.000

 O/F=    0.00000  %FUEL=100.000000  R,EQ.RATIO= 0.000000  PHI,EQ.RATIO= 0.000000

 THERMODYNAMIC PROPERTIES

 P, BAR           0.00165  0.00165  0.00165  0.00165  0.00165  0.00165  0.00165  0.00165
 T, K             4400.00  4410.00  4420.00  4430.00  4440.00  4450.00  4460.00  4470.00
 RHO, KG/CU M    4.5468-6 4.5365-6 4.5262-6 4.5159-6 4.5057-6 4.4956-6 4.4855-6 4.4754-6
 H, KJ/KG        300799.7 301008.8 301217.9 301426.9 301635.9 301844.8 302053.6 302262.5
 U, KJ/KG        264510.4 264636.8 264763.2 264889.5 265015.8 265142.1 265268.3 265394.5
 G, KJ/KG       -676711.3-678933.2-681155.5-683378.3-685601.6-687825.3-690049.5-692274.2
 S, KJ/(KG)(K)   222.1616 222.2091 222.2564 222.3037 222.3508 222.3978 222.4447 222.4914

 M, (1/n)           1.008    1.008    1.008    1.008    1.008    1.008    1.008    1.008
 (dLV/dLP)t      -1.00019 -1.00018 -1.00018 -1.00017 -1.00017 -1.00016 -1.00016 -1.00016
 (dLV/dLT)p        1.0025   1.0024   1.0023   1.0023   1.0022   1.0022   1.0021   1.0021
 Cp, KJ/(KG)(K)   20.9145  20.9086  20.9031  20.8980  20.8932  20.8887  20.8846  20.8807
 GAMMAs            1.6559   1.6561   1.6563   1.6565   1.6566   1.6567   1.6569   1.6570
 SON VEL,M/SEC     7752.0   7761.2   7770.4   7779.6   7788.8   7797.9   7806.9   7815.9

 TRANSPORT PROPERTIES (GASES ONLY)
   CONDUCTIVITY IN UNITS OF MILLIWATTS/(CM)(K)

 VISC,MILLIPOISE  0.48907  0.48997  0.49087  0.49177  0.49266  0.49356  0.49445  0.49535

  WITH EQUILIBRIUM REACTIONS

 Cp, KJ/(KG)(K)   20.9145  20.9086  20.9031  20.8980  20.8932  20.8887  20.8846  20.8807
 CONDUCTIVITY     15.3505  15.3721  15.3938  15.4159  15.4381  15.4605  15.4831  15.5059
 PRANDTL NUMBER    0.6663   0.6664   0.6665   0.6666   0.6667   0.6668   0.6670   0.6671

  WITH FROZEN REACTIONS

 Cp, KJ/(KG)(K)   20.6224  20.6224  20.6224  20.6224  20.6225  20.6225  20.6225  20.6225
 CONDUCTIVITY     15.1272  15.1551  15.1830  15.2109  15.2388  15.2666  15.2944  15.3223
 PRANDTL NUMBER    0.6667   0.6667   0.6667   0.6667   0.6667   0.6667   0.6667   0.6667

 MOLE FRACTIONS

 *e-              0.00001  0.00001  0.00001  0.00001  0.00001  0.00001  0.00001  0.00001
 *H               0.99980  0.99981  0.99981  0.99981  0.99982  0.99982  0.99982  0.99983
 *H+              0.00001  0.00001  0.00001  0.00001  0.00001  0.00001  0.00001  0.00001
 *H2              0.00018  0.00018  0.00017  0.00017  0.00016  0.00016  0.00015  0.00015

  * THERMODYNAMIC PROPERTIES FITTED TO 20000.K

 NOTE. WEIGHT FRACTION OF FUEL IN TOTAL FUELS AND OF OXIDANT IN TOTAL OXIDANTS









               THERMODYNAMIC EQUILIBRIUM PROPERTIES AT ASSIGNED

                           TEMPERATURE AND PRESSURE

 CASE =                

             REACTANT                    WT FRACTION      ENERGY      TEMP
                                          (SEE NOTE)     KJ/KG-MOL      K  
             H2                           1.0000000         0.000      0.000

 O/F=    0.00000  %FUEL=100.000000  R,EQ.RATIO= 0.000000  PHI,EQ.RATIO= 0.000000

 THERMODYNAMIC PROPERTIES

 P, BAR           0.00165  0.00165  0.00180  0.00180  0.00180  0.00180  0.00180  0.00180
 T, K             4480.00  4490.00  4350.00  4360.00  4370.00  4380.00  4390.00  4400.00
 RHO, KG/CU M    4.4654-6 4.4555-6 5.0174-6 5.0059-6 4.9944-6 4.9829-6 4.9715-6 4.9602-6
 H, KJ/KG        302471.2 302680.0 299744.0 299953.6 300163.3 300372.8 300582.2 300791.6
 U, KJ/KG        265520.6 265646.7 263868.8 263995.7 264122.6 264249.5 264376.2 264502.9
 G, KJ/KG       -694499.4-696725.0-662487.6-664699.9-666912.7-669125.9-671339.6-673553.8
 S, KJ/(KG)(K)   222.5381 222.5846 221.2027 221.2508 221.2988 221.3467 221.3945 221.4421

 M, (1/n)           1.008    1.008    1.008    1.008    1.008    1.008    1.008    1.008
 (dLV/dLP)t      -1.00015 -1.00015 -1.00023 -1.00023 -1.00022 -1.00021 -1.00021 -1.00020
 (dLV/dLT)p        1.0020   1.0020   1.0031   1.0030   1.0029   1.0028   1.0027   1.0027
 Cp, KJ/(KG)(K)   20.8772  20.8740  20.9737  20.9649  20.9566  20.9487  20.9413  20.9342
 GAMMAs            1.6571   1.6571   1.6540   1.6543   1.6546   1.6548   1.6551   1.6553
 SON VEL,M/SEC     7824.9   7833.9   7703.1   7712.6   7722.1   7731.6   7741.0   7750.4

 TRANSPORT PROPERTIES (GASES ONLY)
   CONDUCTIVITY IN UNITS OF MILLIWATTS/(CM)(K)

 VISC,MILLIPOISE  0.49625  0.49714  0.48460  0.48550  0.48640  0.48729  0.48819  0.48909

  WITH EQUILIBRIUM REACTIONS

 Cp, KJ/(KG)(K)   20.8772  20.8740  20.9737  20.9649  20.9566  20.9487  20.9413  20.9342
 CONDUCTIVITY     15.5289  15.5520  15.2695  15.2891  15.3089  15.3290  15.3494  15.3701
 PRANDTL NUMBER    0.6672   0.6673   0.6656   0.6657   0.6658   0.6659   0.6660   0.6661

  WITH FROZEN REACTIONS

 Cp, KJ/(KG)(K)   20.6225  20.6226  20.6222  20.6223  20.6223  20.6223  20.6223  20.6223
 CONDUCTIVITY     15.3501  15.3779  14.9878  15.0158  15.0437  15.0717  15.0996  15.1275
 PRANDTL NUMBER    0.6667   0.6667   0.6668   0.6668   0.6668   0.6668   0.6668   0.6667

 MOLE FRACTIONS

 *e-              0.00001  0.00001  0.00001  0.00001  0.00001  0.00001  0.00001  0.00001
 *H               0.99983  0.99983  0.99976  0.99976  0.99977  0.99977  0.99978  0.99979
 *H+              0.00001  0.00001  0.00001  0.00001  0.00001  0.00001  0.00001  0.00001
 *H2              0.00015  0.00014  0.00023  0.00022  0.00022  0.00021  0.00020  0.00020

  * THERMODYNAMIC PROPERTIES FITTED TO 20000.K

 NOTE. WEIGHT FRACTION OF FUEL IN TOTAL FUELS AND OF OXIDANT IN TOTAL OXIDANTS









               THERMODYNAMIC EQUILIBRIUM PROPERTIES AT ASSIGNED

                           TEMPERATURE AND PRESSURE

 CASE =                

             REACTANT                    WT FRACTION      ENERGY      TEMP
                                          (SEE NOTE)     KJ/KG-MOL      K  
             H2                           1.0000000         0.000      0.000

 O/F=    0.00000  %FUEL=100.000000  R,EQ.RATIO= 0.000000  PHI,EQ.RATIO= 0.000000

 THERMODYNAMIC PROPERTIES

 P, BAR           0.00180  0.00180  0.00180  0.00180  0.00180  0.00180  0.00180  0.00180
 T, K             4410.00  4420.00  4430.00  4440.00  4450.00  4460.00  4470.00  4480.00
 RHO, KG/CU M    4.9489-6 4.9377-6 4.9265-6 4.9154-6 4.9043-6 4.8933-6 4.8824-6 4.8714-6
 H, KJ/KG        301000.9 301210.2 301419.3 301628.5 301837.5 302046.6 302255.5 302464.5
 U, KJ/KG        264629.5 264756.1 264882.6 265009.0 265135.4 265261.8 265388.1 265514.3
 G, KJ/KG       -675768.4-677983.6-680199.2-682415.3-684631.8-686848.8-689066.3-691284.3
 S, KJ/(KG)(K)   221.4896 221.5370 221.5843 221.6315 221.6785 221.7254 221.7722 221.8189

 M, (1/n)           1.008    1.008    1.008    1.008    1.008    1.008    1.008    1.008
 (dLV/dLP)t      -1.00020 -1.00019 -1.00019 -1.00018 -1.00018 -1.00017 -1.00017 -1.00016
 (dLV/dLT)p        1.0026   1.0025   1.0025   1.0024   1.0023   1.0023   1.0022   1.0022
 Cp, KJ/(KG)(K)   20.9276  20.9213  20.9154  20.9099  20.9047  20.8999  20.8953  20.8912
 GAMMAs            1.6555   1.6557   1.6559   1.6561   1.6562   1.6564   1.6565   1.6566
 SON VEL,M/SEC     7759.7   7769.0   7778.2   7787.4   7796.6   7805.7   7814.8   7823.8

 TRANSPORT PROPERTIES (GASES ONLY)
   CONDUCTIVITY IN UNITS OF MILLIWATTS/(CM)(K)

 VISC,MILLIPOISE  0.48999  0.49089  0.49178  0.49268  0.49358  0.49447  0.49537  0.49626

  WITH EQUILIBRIUM REACTIONS

 Cp, KJ/(KG)(K)   20.9276  20.9213  20.9154  20.9099  20.9047  20.8999  20.8953  20.8912
 CONDUCTIVITY     15.3910  15.4122  15.4336  15.4553  15.4772  15.4993  15.5216  15.5440
 PRANDTL NUMBER    0.6663   0.6664   0.6665   0.6666   0.6667   0.6668   0.6669   0.6670

  WITH FROZEN REACTIONS

 Cp, KJ/(KG)(K)   20.6224  20.6224  20.6224  20.6224  20.6224  20.6225  20.6225  20.6225
 CONDUCTIVITY     15.1554  15.1833  15.2112  15.2390  15.2668  15.2947  15.3225  15.3503
 PRANDTL NUMBER    0.6667   0.6667   0.6667   0.6667   0.6667   0.6667   0.6667   0.6667

 MOLE FRACTIONS

 *e-              0.00001  0.00001  0.00001  0.00001  0.00001  0.00001  0.00001  0.00001
 *H               0.99979  0.99979  0.99980  0.99980  0.99981  0.99981  0.99982  0.99982
 *H+              0.00001  0.00001  0.00001  0.00001  0.00001  0.00001  0.00001  0.00001
 *H2              0.00019  0.00019  0.00018  0.00018  0.00017  0.00017  0.00016  0.00016

  * THERMODYNAMIC PROPERTIES FITTED TO 20000.K

 NOTE. WEIGHT FRACTION OF FUEL IN TOTAL FUELS AND OF OXIDANT IN TOTAL OXIDANTS









               THERMODYNAMIC EQUILIBRIUM PROPERTIES AT ASSIGNED

                           TEMPERATURE AND PRESSURE

 CASE =                

             REACTANT                    WT FRACTION      ENERGY      TEMP
                                          (SEE NOTE)     KJ/KG-MOL      K  
             H2                           1.0000000         0.000      0.000

 O/F=    0.00000  %FUEL=100.000000  R,EQ.RATIO= 0.000000  PHI,EQ.RATIO= 0.000000

 THERMODYNAMIC PROPERTIES

 P, BAR           0.00180  0.00200  0.00200  0.00200  0.00200  0.00200  0.00200  0.00200
 T, K             4490.00  4350.00  4360.00  4370.00  4380.00  4390.00  4400.00  4410.00
 RHO, KG/CU M    4.8606-6 5.5750-6 5.5622-6 5.5494-6 5.5367-6 5.5241-6 5.5115-6 5.4989-6
 H, KJ/KG        302673.4 299731.7 299941.8 300151.7 300361.5 300571.2 300780.9 300990.4
 U, KJ/KG        265640.6 263857.5 263984.8 264111.9 264239.0 264366.0 264493.0 264619.8
 G, KJ/KG       -693502.7-658707.9-660911.4-663115.5-665320.0-667525.0-669730.4-671936.4
 S, KJ/(KG)(K)   221.8655 220.3309 220.3792 220.4273 220.4752 220.5230 220.5707 220.6183

 M, (1/n)           1.008    1.008    1.008    1.008    1.008    1.008    1.008    1.008
 (dLV/dLP)t      -1.00016 -1.00026 -1.00025 -1.00024 -1.00024 -1.00023 -1.00022 -1.00022
 (dLV/dLT)p        1.0021   1.0034   1.0033   1.0032   1.0031   1.0030   1.0029   1.0029
 Cp, KJ/(KG)(K)   20.8873  21.0062  20.9962  20.9867  20.9777  20.9691  20.9610  20.9533
 GAMMAs            1.6567   1.6529   1.6532   1.6536   1.6539   1.6541   1.6544   1.6547
 SON VEL,M/SEC     7832.8   7700.5   7710.1   7719.7   7729.3   7738.8   7748.2   7757.6

 TRANSPORT PROPERTIES (GASES ONLY)
   CONDUCTIVITY IN UNITS OF MILLIWATTS/(CM)(K)

 VISC,MILLIPOISE  0.49715  0.48462  0.48552  0.48642  0.48732  0.48822  0.48912  0.49001

  WITH EQUILIBRIUM REACTIONS

 Cp, KJ/(KG)(K)   20.8873  21.0062  20.9962  20.9867  20.9777  20.9691  20.9610  20.9533
 CONDUCTIVITY     15.5667  15.3003  15.3189  15.3377  15.3570  15.3765  15.3963  15.4164
 PRANDTL NUMBER    0.6671   0.6654   0.6655   0.6656   0.6657   0.6658   0.6659   0.6660

  WITH FROZEN REACTIONS

 Cp, KJ/(KG)(K)   20.6225  20.6222  20.6222  20.6222  20.6223  20.6223  20.6223  20.6223
 CONDUCTIVITY     15.3781  14.9882  15.0162  15.0441  15.0721  15.1000  15.1279  15.1558
 PRANDTL NUMBER    0.6667   0.6668   0.6668   0.6668   0.6668   0.6668   0.6668   0.6668

 MOLE FRACTIONS

 *e-              0.00001  0.00001  0.00001  0.00001  0.00001  0.00001  0.00001  0.00001
 *H               0.99982  0.99973  0.99974  0.99975  0.99975  0.99976  0.99976  0.99977
 *H+              0.00001  0.00001  0.00001  0.00001  0.00001  0.00001  0.00001  0.00001
 *H2              0.00015  0.00026  0.00025  0.00024  0.00023  0.00023  0.00022  0.00021

  * THERMODYNAMIC PROPERTIES FITTED TO 20000.K

 NOTE. WEIGHT FRACTION OF FUEL IN TOTAL FUELS AND OF OXIDANT IN TOTAL OXIDANTS









               THERMODYNAMIC EQUILIBRIUM PROPERTIES AT ASSIGNED

                           TEMPERATURE AND PRESSURE

 CASE =                

             REACTANT                    WT FRACTION      ENERGY      TEMP
                                          (SEE NOTE)     KJ/KG-MOL      K  
             H2                           1.0000000         0.000      0.000

 O/F=    0.00000  %FUEL=100.000000  R,EQ.RATIO= 0.000000  PHI,EQ.RATIO= 0.000000

 THERMODYNAMIC PROPERTIES

 P, BAR           0.00200  0.00200  0.00200  0.00200  0.00200  0.00200  0.00200  0.00200
 T, K             4420.00  4430.00  4440.00  4450.00  4460.00  4470.00  4480.00  4490.00
 RHO, KG/CU M    5.4865-6 5.4740-6 5.4617-6 5.4494-6 5.4371-6 5.4249-6 5.4128-6 5.4007-6
 H, KJ/KG        301199.9 301409.4 301618.7 301828.0 302037.3 302246.4 302455.6 302664.6
 U, KJ/KG        264746.6 264873.3 265000.0 265126.6 265253.2 265379.7 265506.1 265632.5
 G, KJ/KG       -674142.8-676349.7-678557.1-680764.9-682973.2-685182.0-687391.2-689600.9
 S, KJ/(KG)(K)   220.6658 220.7131 220.7603 220.8074 220.8544 220.9012 220.9479 220.9946

 M, (1/n)           1.008    1.008    1.008    1.008    1.008    1.008    1.008    1.008
 (dLV/dLP)t      -1.00021 -1.00021 -1.00020 -1.00020 -1.00019 -1.00019 -1.00018 -1.00018
 (dLV/dLT)p        1.0028   1.0027   1.0026   1.0026   1.0025   1.0025   1.0024   1.0023
 Cp, KJ/(KG)(K)   20.9460  20.9391  20.9326  20.9265  20.9207  20.9153  20.9103  20.9056
 GAMMAs            1.6549   1.6551   1.6553   1.6555   1.6557   1.6559   1.6560   1.6562
 SON VEL,M/SEC     7767.0   7776.3   7785.6   7794.9   7804.1   7813.2   7822.3   7831.4

 TRANSPORT PROPERTIES (GASES ONLY)
   CONDUCTIVITY IN UNITS OF MILLIWATTS/(CM)(K)

 VISC,MILLIPOISE  0.49091  0.49181  0.49270  0.49360  0.49449  0.49539  0.49628  0.49718

  WITH EQUILIBRIUM REACTIONS

 Cp, KJ/(KG)(K)   20.9460  20.9391  20.9326  20.9265  20.9207  20.9153  20.9103  20.9056
 CONDUCTIVITY     15.4368  15.4574  15.4783  15.4995  15.5209  15.5425  15.5643  15.5864
 PRANDTL NUMBER    0.6661   0.6662   0.6663   0.6664   0.6665   0.6666   0.6667   0.6668

  WITH FROZEN REACTIONS

 Cp, KJ/(KG)(K)   20.6223  20.6224  20.6224  20.6224  20.6224  20.6224  20.6225  20.6225
 CONDUCTIVITY     15.1836  15.2115  15.2393  15.2672  15.2950  15.3228  15.3506  15.3784
 PRANDTL NUMBER    0.6668   0.6667   0.6667   0.6667   0.6667   0.6667   0.6667   0.6667

 MOLE FRACTIONS

 *e-              0.00001  0.00001  0.00001  0.00001  0.00001  0.00001  0.00001  0.00001
 *H               0.99977  0.99978  0.99978  0.99979  0.99979  0.99980  0.99980  0.99981
 *H+              0.00001  0.00001  0.00001  0.00001  0.00001  0.00001  0.00001  0.00001
 *H2              0.00021  0.00020  0.00020  0.00019  0.00019  0.00018  0.00018  0.00017

  * THERMODYNAMIC PROPERTIES FITTED TO 20000.K

 NOTE. WEIGHT FRACTION OF FUEL IN TOTAL FUELS AND OF OXIDANT IN TOTAL OXIDANTS









               THERMODYNAMIC EQUILIBRIUM PROPERTIES AT ASSIGNED

                           TEMPERATURE AND PRESSURE

 CASE =                

             REACTANT                    WT FRACTION      ENERGY      TEMP
                                          (SEE NOTE)     KJ/KG-MOL      K  
             H2                           1.0000000         0.000      0.000

 O/F=    0.00000  %FUEL=100.000000  R,EQ.RATIO= 0.000000  PHI,EQ.RATIO= 0.000000

 THERMODYNAMIC PROPERTIES

 P, BAR           0.00225  0.00225  0.00225  0.00225  0.00225  0.00225  0.00225  0.00225
 T, K             4350.00  4360.00  4370.00  4380.00  4390.00  4400.00  4410.00  4420.00
 RHO, KG/CU M    6.2721-6 6.2577-6 6.2433-6 6.2290-6 6.2148-6 6.2006-6 6.1865-6 6.1724-6
 H, KJ/KG        299716.6 299927.0 300137.3 300347.5 300557.6 300767.6 300977.5 301187.3
 U, KJ/KG        263843.5 263971.1 264098.7 264226.1 264353.4 264480.7 264607.8 264734.9
 G, KJ/KG       -654482.6-656676.4-658870.6-661065.4-663260.7-665456.4-667652.6-669849.3
 S, KJ/(KG)(K)   219.3561 219.4044 219.4526 219.5007 219.5486 219.5964 219.6440 219.6915

 M, (1/n)           1.008    1.008    1.008    1.008    1.008    1.008    1.008    1.008
 (dLV/dLP)t      -1.00029 -1.00028 -1.00027 -1.00027 -1.00026 -1.00025 -1.00025 -1.00024
 (dLV/dLT)p        1.0038   1.0037   1.0036   1.0035   1.0034   1.0033   1.0032   1.0031
 Cp, KJ/(KG)(K)   21.0472  21.0357  21.0247  21.0143  21.0043  20.9949  20.9859  20.9773
 GAMMAs            1.6516   1.6519   1.6523   1.6526   1.6530   1.6533   1.6536   1.6539
 SON VEL,M/SEC     7697.2   7706.9   7716.7   7726.3   7735.9   7745.5   7755.0   7764.5

 TRANSPORT PROPERTIES (GASES ONLY)
   CONDUCTIVITY IN UNITS OF MILLIWATTS/(CM)(K)

 VISC,MILLIPOISE  0.48466  0.48555  0.48645  0.48735  0.48825  0.48914  0.49004  0.49094

  WITH EQUILIBRIUM REACTIONS

 Cp, KJ/(KG)(K)   21.0472  21.0357  21.0247  21.0143  21.0043  20.9949  20.9859  20.9773
 CONDUCTIVITY     15.3388  15.3561  15.3738  15.3919  15.4103  15.4291  15.4482  15.4675
 PRANDTL NUMBER    0.6650   0.6651   0.6653   0.6654   0.6655   0.6656   0.6657   0.6658

  WITH FROZEN REACTIONS

 Cp, KJ/(KG)(K)   20.6221  20.6221  20.6222  20.6222  20.6222  20.6222  20.6223  20.6223
 CONDUCTIVITY     14.9888  15.0167  15.0446  15.0725  15.1004  15.1283  15.1562  15.1841
 PRANDTL NUMBER    0.6668   0.6668   0.6668   0.6668   0.6668   0.6668   0.6668   0.6668

 MOLE FRACTIONS

 *e-              0.00001  0.00001  0.00001  0.00001  0.00001  0.00001  0.00001  0.00001
 *H               0.99970  0.99971  0.99972  0.99972  0.99973  0.99974  0.99974  0.99975
 *H+              0.00001  0.00001  0.00001  0.00001  0.00001  0.00001  0.00001  0.00001
 *H2              0.00029  0.00028  0.00027  0.00026  0.00026  0.00025  0.00024  0.00023

  * THERMODYNAMIC PROPERTIES FITTED TO 20000.K

 NOTE. WEIGHT FRACTION OF FUEL IN TOTAL FUELS AND OF OXIDANT IN TOTAL OXIDANTS









               THERMODYNAMIC EQUILIBRIUM PROPERTIES AT ASSIGNED

                           TEMPERATURE AND PRESSURE

 CASE =                

             REACTANT                    WT FRACTION      ENERGY      TEMP
                                          (SEE NOTE)     KJ/KG-MOL      K  
             H2                           1.0000000         0.000      0.000

 O/F=    0.00000  %FUEL=100.000000  R,EQ.RATIO= 0.000000  PHI,EQ.RATIO= 0.000000

 THERMODYNAMIC PROPERTIES

 P, BAR           0.00225  0.00225  0.00225  0.00225  0.00225  0.00225  0.00225  0.00250
 T, K             4430.00  4440.00  4450.00  4460.00  4470.00  4480.00  4490.00  4350.00
 RHO, KG/CU M    6.1585-6 6.1446-6 6.1307-6 6.1169-6 6.1032-6 6.0895-6 6.0759-6 6.9692-6
 H, KJ/KG        301397.0 301606.7 301816.3 302025.8 302235.2 302444.6 302653.9 299701.5
 U, KJ/KG        264861.9 264988.9 265115.7 265242.5 265369.3 265496.0 265622.6 263829.5
 G, KJ/KG       -672046.4-674244.0-676442.1-678640.7-680839.7-683039.3-685239.2-650703.0
 S, KJ/(KG)(K)   219.7389 219.7862 219.8333 219.8804 219.9273 219.9741 220.0207 218.4838

 M, (1/n)           1.008    1.008    1.008    1.008    1.008    1.008    1.008    1.008
 (dLV/dLP)t      -1.00023 -1.00023 -1.00022 -1.00021 -1.00021 -1.00020 -1.00020 -1.00032
 (dLV/dLT)p        1.0030   1.0029   1.0029   1.0028   1.0027   1.0027   1.0026   1.0042
 Cp, KJ/(KG)(K)   20.9692  20.9615  20.9543  20.9474  20.9409  20.9348  20.9291  21.0886
 GAMMAs            1.6541   1.6544   1.6546   1.6548   1.6550   1.6552   1.6554   1.6502
 SON VEL,M/SEC     7773.9   7783.3   7792.6   7801.9   7811.2   7820.4   7829.5   7693.8

 TRANSPORT PROPERTIES (GASES ONLY)
   CONDUCTIVITY IN UNITS OF MILLIWATTS/(CM)(K)

 VISC,MILLIPOISE  0.49183  0.49273  0.49362  0.49452  0.49541  0.49631  0.49720  0.48469

  WITH EQUILIBRIUM REACTIONS

 Cp, KJ/(KG)(K)   20.9692  20.9615  20.9543  20.9474  20.9409  20.9348  20.9291  21.0886
 CONDUCTIVITY     15.4872  15.5072  15.5275  15.5480  15.5687  15.5898  15.6110  15.3774
 PRANDTL NUMBER    0.6659   0.6660   0.6661   0.6663   0.6664   0.6665   0.6666   0.6647

  WITH FROZEN REACTIONS

 Cp, KJ/(KG)(K)   20.6223  20.6223  20.6224  20.6224  20.6224  20.6224  20.6224  20.6221
 CONDUCTIVITY     15.2119  15.2397  15.2676  15.2954  15.3232  15.3510  15.3787  14.9893
 PRANDTL NUMBER    0.6668   0.6668   0.6668   0.6667   0.6667   0.6667   0.6667   0.6668

 MOLE FRACTIONS

 *e-              0.00001  0.00001  0.00001  0.00001  0.00001  0.00001  0.00001  0.00001
 *H               0.99976  0.99976  0.99977  0.99977  0.99978  0.99978  0.99979  0.99967
 *H+              0.00001  0.00001  0.00001  0.00001  0.00001  0.00001  0.00001  0.00001
 *H2              0.00023  0.00022  0.00022  0.00021  0.00020  0.00020  0.00019  0.00032

  * THERMODYNAMIC PROPERTIES FITTED TO 20000.K

 NOTE. WEIGHT FRACTION OF FUEL IN TOTAL FUELS AND OF OXIDANT IN TOTAL OXIDANTS









               THERMODYNAMIC EQUILIBRIUM PROPERTIES AT ASSIGNED

                           TEMPERATURE AND PRESSURE

 CASE =                

             REACTANT                    WT FRACTION      ENERGY      TEMP
                                          (SEE NOTE)     KJ/KG-MOL      K  
             H2                           1.0000000         0.000      0.000

 O/F=    0.00000  %FUEL=100.000000  R,EQ.RATIO= 0.000000  PHI,EQ.RATIO= 0.000000

 THERMODYNAMIC PROPERTIES

 P, BAR           0.00250  0.00250  0.00250  0.00250  0.00250  0.00250  0.00250  0.00250
 T, K             4360.00  4370.00  4380.00  4390.00  4400.00  4410.00  4420.00  4430.00
 RHO, KG/CU M    6.9532-6 6.9372-6 6.9213-6 6.9055-6 6.8897-6 6.8741-6 6.8584-6 6.8429-6
 H, KJ/KG        299912.3 300123.0 300333.6 300544.0 300754.4 300964.6 301174.7 301384.8
 U, KJ/KG        263957.6 264085.4 264213.2 264340.9 264468.5 264596.0 264723.3 264850.6
 G, KJ/KG       -652888.1-655073.7-657259.7-659446.2-661633.2-663820.7-666008.7-668197.1
 S, KJ/(KG)(K)   218.5322 218.5805 218.6286 218.6766 218.7245 218.7722 218.8198 218.8672

 M, (1/n)           1.008    1.008    1.008    1.008    1.008    1.008    1.008    1.008
 (dLV/dLP)t      -1.00031 -1.00030 -1.00030 -1.00029 -1.00028 -1.00027 -1.00026 -1.00026
 (dLV/dLT)p        1.0041   1.0040   1.0038   1.0037   1.0036   1.0035   1.0034   1.0033
 Cp, KJ/(KG)(K)   21.0755  21.0631  21.0512  21.0399  21.0291  21.0189  21.0091  20.9998
 GAMMAs            1.6506   1.6510   1.6514   1.6518   1.6522   1.6525   1.6528   1.6531
 SON VEL,M/SEC     7703.7   7713.6   7723.4   7733.1   7742.7   7752.4   7761.9   7771.5

 TRANSPORT PROPERTIES (GASES ONLY)
   CONDUCTIVITY IN UNITS OF MILLIWATTS/(CM)(K)

 VISC,MILLIPOISE  0.48559  0.48648  0.48738  0.48828  0.48917  0.49007  0.49097  0.49186

  WITH EQUILIBRIUM REACTIONS

 Cp, KJ/(KG)(K)   21.0755  21.0631  21.0512  21.0399  21.0291  21.0189  21.0091  20.9998
 CONDUCTIVITY     15.3935  15.4100  15.4269  15.4442  15.4619  15.4800  15.4984  15.5171
 PRANDTL NUMBER    0.6648   0.6650   0.6651   0.6652   0.6653   0.6654   0.6655   0.6657

  WITH FROZEN REACTIONS

 Cp, KJ/(KG)(K)   20.6221  20.6221  20.6221  20.6222  20.6222  20.6222  20.6222  20.6223
 CONDUCTIVITY     15.0172  15.0451  15.0730  15.1009  15.1288  15.1566  15.1845  15.2123
 PRANDTL NUMBER    0.6668   0.6668   0.6668   0.6668   0.6668   0.6668   0.6668   0.6668

 MOLE FRACTIONS

 *e-              0.00001  0.00001  0.00001  0.00001  0.00001  0.00001  0.00001  0.00001
 *H               0.99968  0.99969  0.99969  0.99970  0.99971  0.99972  0.99972  0.99973
 *H+              0.00001  0.00001  0.00001  0.00001  0.00001  0.00001  0.00001  0.00001
 *H2              0.00031  0.00030  0.00029  0.00028  0.00028  0.00027  0.00026  0.00025

  * THERMODYNAMIC PROPERTIES FITTED TO 20000.K

 NOTE. WEIGHT FRACTION OF FUEL IN TOTAL FUELS AND OF OXIDANT IN TOTAL OXIDANTS









               THERMODYNAMIC EQUILIBRIUM PROPERTIES AT ASSIGNED

                           TEMPERATURE AND PRESSURE

 CASE =                

             REACTANT                    WT FRACTION      ENERGY      TEMP
                                          (SEE NOTE)     KJ/KG-MOL      K  
             H2                           1.0000000         0.000      0.000

 O/F=    0.00000  %FUEL=100.000000  R,EQ.RATIO= 0.000000  PHI,EQ.RATIO= 0.000000

 THERMODYNAMIC PROPERTIES

 P, BAR           0.00250  0.00250  0.00250  0.00250  0.00250  0.00250  0.00280  0.00280
 T, K             4440.00  4450.00  4460.00  4470.00  4480.00  4490.00  4350.00  4360.00
 RHO, KG/CU M    6.8274-6 6.8121-6 6.7967-6 6.7815-6 6.7663-6 6.7512-6 7.8058-6 7.7879-6
 H, KJ/KG        301594.7 301804.6 302014.4 302224.1 302433.7 302643.3 299683.4 299894.7
 U, KJ/KG        264977.8 265105.0 265232.0 265359.0 265485.9 265612.8 263812.9 263941.4
 G, KJ/KG       -670386.0-672575.4-674765.3-676955.6-679146.4-681337.6-646637.8-648813.5
 S, KJ/(KG)(K)   218.9146 218.9618 219.0089 219.0559 219.1027 219.1494 217.5451 217.5936

 M, (1/n)           1.008    1.008    1.008    1.008    1.008    1.008    1.008    1.008
 (dLV/dLP)t      -1.00025 -1.00024 -1.00024 -1.00023 -1.00022 -1.00022 -1.00036 -1.00035
 (dLV/dLT)p        1.0032   1.0032   1.0031   1.0030   1.0029   1.0028   1.0047   1.0045
 Cp, KJ/(KG)(K)   20.9909  20.9825  20.9746  20.9670  20.9599  20.9532  21.1385  21.1237
 GAMMAs            1.6534   1.6537   1.6539   1.6542   1.6544   1.6546   1.6485   1.6490
 SON VEL,M/SEC     7780.9   7790.4   7799.7   7809.1   7818.4   7827.6   7689.9   7699.9

 TRANSPORT PROPERTIES (GASES ONLY)
   CONDUCTIVITY IN UNITS OF MILLIWATTS/(CM)(K)

 VISC,MILLIPOISE  0.49276  0.49365  0.49454  0.49544  0.49633  0.49722  0.48473  0.48563

  WITH EQUILIBRIUM REACTIONS

 Cp, KJ/(KG)(K)   20.9909  20.9825  20.9746  20.9670  20.9599  20.9532  21.1385  21.1237
 CONDUCTIVITY     15.5361  15.5555  15.5751  15.5951  15.6153  15.6358  15.4236  15.4383
 PRANDTL NUMBER    0.6658   0.6659   0.6660   0.6661   0.6662   0.6663   0.6643   0.6645

  WITH FROZEN REACTIONS

 Cp, KJ/(KG)(K)   20.6223  20.6223  20.6223  20.6223  20.6224  20.6224  20.6220  20.6220
 CONDUCTIVITY     15.2402  15.2680  15.2958  15.3236  15.3513  15.3791  14.9899  15.0178
 PRANDTL NUMBER    0.6668   0.6668   0.6668   0.6668   0.6668   0.6667   0.6669   0.6668

 MOLE FRACTIONS

 *e-              0.00001  0.00001  0.00001  0.00001  0.00001  0.00001  0.00001  0.00001
 *H               0.99974  0.99974  0.99975  0.99976  0.99976  0.99977  0.99963  0.99964
 *H+              0.00001  0.00001  0.00001  0.00001  0.00001  0.00001  0.00001  0.00001
 *H2              0.00025  0.00024  0.00023  0.00023  0.00022  0.00021  0.00036  0.00035

  * THERMODYNAMIC PROPERTIES FITTED TO 20000.K

 NOTE. WEIGHT FRACTION OF FUEL IN TOTAL FUELS AND OF OXIDANT IN TOTAL OXIDANTS









               THERMODYNAMIC EQUILIBRIUM PROPERTIES AT ASSIGNED

                           TEMPERATURE AND PRESSURE

 CASE =                

             REACTANT                    WT FRACTION      ENERGY      TEMP
                                          (SEE NOTE)     KJ/KG-MOL      K  
             H2                           1.0000000         0.000      0.000

 O/F=    0.00000  %FUEL=100.000000  R,EQ.RATIO= 0.000000  PHI,EQ.RATIO= 0.000000

 THERMODYNAMIC PROPERTIES

 P, BAR           0.00280  0.00280  0.00280  0.00280  0.00280  0.00280  0.00280  0.00280
 T, K             4370.00  4380.00  4390.00  4400.00  4410.00  4420.00  4430.00  4440.00
 RHO, KG/CU M    7.7700-6 7.7521-6 7.7344-6 7.7168-6 7.6992-6 7.6817-6 7.6643-6 7.6470-6
 H, KJ/KG        300105.9 300316.9 300527.8 300738.6 300949.2 301159.8 301370.2 301580.5
 U, KJ/KG        264069.7 264197.9 264326.0 264453.9 264581.8 264709.5 264837.2 264964.7
 G, KJ/KG       -650989.6-653166.3-655343.4-657521.1-659699.2-661877.7-664056.8-666236.3
 S, KJ/(KG)(K)   217.6420 217.6902 217.7383 217.7863 217.8341 217.8818 217.9293 217.9768

 M, (1/n)           1.008    1.008    1.008    1.008    1.008    1.008    1.008    1.008
 (dLV/dLP)t      -1.00034 -1.00033 -1.00032 -1.00031 -1.00030 -1.00030 -1.00029 -1.00028
 (dLV/dLT)p        1.0044   1.0043   1.0042   1.0040   1.0039   1.0038   1.0037   1.0036
 Cp, KJ/(KG)(K)   21.1095  21.0960  21.0830  21.0707  21.0589  21.0476  21.0369  21.0267
 GAMMAs            1.6495   1.6500   1.6504   1.6508   1.6512   1.6516   1.6519   1.6522
 SON VEL,M/SEC     7709.9   7719.8   7729.6   7739.4   7749.2   7758.8   7768.5   7778.1

 TRANSPORT PROPERTIES (GASES ONLY)
   CONDUCTIVITY IN UNITS OF MILLIWATTS/(CM)(K)

 VISC,MILLIPOISE  0.48652  0.48742  0.48831  0.48921  0.49010  0.49100  0.49189  0.49279

  WITH EQUILIBRIUM REACTIONS

 Cp, KJ/(KG)(K)   21.1095  21.0960  21.0830  21.0707  21.0589  21.0476  21.0369  21.0267
 CONDUCTIVITY     15.4534  15.4689  15.4849  15.5014  15.5182  15.5354  15.5530  15.5709
 PRANDTL NUMBER    0.6646   0.6647   0.6648   0.6650   0.6651   0.6652   0.6653   0.6655

  WITH FROZEN REACTIONS

 Cp, KJ/(KG)(K)   20.6220  20.6221  20.6221  20.6221  20.6221  20.6222  20.6222  20.6222
 CONDUCTIVITY     15.0457  15.0736  15.1015  15.1293  15.1572  15.1850  15.2128  15.2407
 PRANDTL NUMBER    0.6668   0.6668   0.6668   0.6668   0.6668   0.6668   0.6668   0.6668

 MOLE FRACTIONS

 *e-              0.00001  0.00001  0.00001  0.00001  0.00001  0.00001  0.00001  0.00001
 *H               0.99965  0.99966  0.99967  0.99968  0.99969  0.99969  0.99970  0.99971
 *H+              0.00001  0.00001  0.00001  0.00001  0.00001  0.00001  0.00001  0.00001
 *H2              0.00034  0.00033  0.00032  0.00031  0.00030  0.00029  0.00028  0.00028

  * THERMODYNAMIC PROPERTIES FITTED TO 20000.K

 NOTE. WEIGHT FRACTION OF FUEL IN TOTAL FUELS AND OF OXIDANT IN TOTAL OXIDANTS









               THERMODYNAMIC EQUILIBRIUM PROPERTIES AT ASSIGNED

                           TEMPERATURE AND PRESSURE

 CASE =                

             REACTANT                    WT FRACTION      ENERGY      TEMP
                                          (SEE NOTE)     KJ/KG-MOL      K  
             H2                           1.0000000         0.000      0.000

 O/F=    0.00000  %FUEL=100.000000  R,EQ.RATIO= 0.000000  PHI,EQ.RATIO= 0.000000

 THERMODYNAMIC PROPERTIES

 P, BAR           0.00280  0.00280  0.00280  0.00280  0.00280  0.00310  0.00310  0.00310
 T, K             4450.00  4460.00  4470.00  4480.00  4490.00  4350.00  4360.00  4370.00
 RHO, KG/CU M    7.6297-6 7.6126-6 7.5955-6 7.5785-6 7.5615-6 8.6425-6 8.6226-6 8.6028-6
 H, KJ/KG        301790.7 302000.9 302210.9 302420.8 302630.7 299665.5 299877.3 300088.9
 U, KJ/KG        265092.2 265219.6 265346.8 265474.0 265601.2 263796.3 263925.2 264054.0
 G, KJ/KG       -668416.3-670596.8-672777.8-674959.2-677141.1-642986.8-645154.1-647321.8
 S, KJ/(KG)(K)   218.0241 218.0712 218.1183 218.1652 218.2120 216.7017 216.7503 216.7988

 M, (1/n)           1.008    1.008    1.008    1.008    1.008    1.008    1.008    1.008
 (dLV/dLP)t      -1.00027 -1.00026 -1.00026 -1.00025 -1.00024 -1.00040 -1.00039 -1.00038
 (dLV/dLT)p        1.0035   1.0034   1.0033   1.0032   1.0032   1.0052   1.0050   1.0049
 Cp, KJ/(KG)(K)   21.0169  21.0077  20.9989  20.9905  20.9826  21.1887  21.1721  21.1562
 GAMMAs            1.6526   1.6529   1.6532   1.6534   1.6537   1.6469   1.6474   1.6480
 SON VEL,M/SEC     7787.6   7797.1   7806.5   7815.9   7825.3   7685.9   7696.0   7706.1

 TRANSPORT PROPERTIES (GASES ONLY)
   CONDUCTIVITY IN UNITS OF MILLIWATTS/(CM)(K)

 VISC,MILLIPOISE  0.49368  0.49457  0.49547  0.49636  0.49725  0.48477  0.48566  0.48656

  WITH EQUILIBRIUM REACTIONS

 Cp, KJ/(KG)(K)   21.0169  21.0077  20.9989  20.9905  20.9826  21.1886  21.1721  21.1562
 CONDUCTIVITY     15.5892  15.6078  15.6267  15.6460  15.6655  15.4700  15.4831  15.4968
 PRANDTL NUMBER    0.6656   0.6657   0.6658   0.6659   0.6660   0.6640   0.6641   0.6642

  WITH FROZEN REACTIONS

 Cp, KJ/(KG)(K)   20.6222  20.6223  20.6223  20.6223  20.6223  20.6219  20.6219  20.6220
 CONDUCTIVITY     15.2685  15.2962  15.3240  15.3518  15.3795  14.9905  15.0184  15.0463
 PRANDTL NUMBER    0.6668   0.6668   0.6668   0.6668   0.6668   0.6669   0.6669   0.6669

 MOLE FRACTIONS

 *e-              0.00001  0.00001  0.00001  0.00001  0.00001  0.00000  0.00001  0.00001
 *H               0.99972  0.99972  0.99973  0.99974  0.99974  0.99959  0.99961  0.99962
 *H+              0.00001  0.00001  0.00001  0.00001  0.00001  0.00000  0.00001  0.00001
 *H2              0.00027  0.00026  0.00025  0.00025  0.00024  0.00040  0.00038  0.00037

  * THERMODYNAMIC PROPERTIES FITTED TO 20000.K

 NOTE. WEIGHT FRACTION OF FUEL IN TOTAL FUELS AND OF OXIDANT IN TOTAL OXIDANTS









               THERMODYNAMIC EQUILIBRIUM PROPERTIES AT ASSIGNED

                           TEMPERATURE AND PRESSURE

 CASE =                

             REACTANT                    WT FRACTION      ENERGY      TEMP
                                          (SEE NOTE)     KJ/KG-MOL      K  
             H2                           1.0000000         0.000      0.000

 O/F=    0.00000  %FUEL=100.000000  R,EQ.RATIO= 0.000000  PHI,EQ.RATIO= 0.000000

 THERMODYNAMIC PROPERTIES

 P, BAR           0.00310  0.00310  0.00310  0.00310  0.00310  0.00310  0.00310  0.00310
 T, K             4380.00  4390.00  4400.00  4410.00  4420.00  4430.00  4440.00  4450.00
 RHO, KG/CU M    8.5830-6 8.5634-6 8.5438-6 8.5244-6 8.5050-6 8.4857-6 8.4665-6 8.4474-6
 H, KJ/KG        300300.4 300511.7 300722.9 300934.0 301144.9 301355.7 301566.4 301777.0
 U, KJ/KG        264182.6 264311.1 264439.5 264567.7 264695.8 264823.8 264951.7 265079.5
 G, KJ/KG       -649490.1-651658.8-653828.0-655997.6-658167.8-660338.4-662509.5-664681.1
 S, KJ/(KG)(K)   216.8471 216.8953 216.9434 216.9913 217.0391 217.0867 217.1342 217.1816

 M, (1/n)           1.008    1.008    1.008    1.008    1.008    1.008    1.008    1.008
 (dLV/dLP)t      -1.00037 -1.00036 -1.00035 -1.00034 -1.00033 -1.00032 -1.00031 -1.00030
 (dLV/dLT)p        1.0047   1.0046   1.0045   1.0043   1.0042   1.0041   1.0040   1.0039
 Cp, KJ/(KG)(K)   21.1410  21.1264  21.1125  21.0992  21.0865  21.0744  21.0628  21.0517
 GAMMAs            1.6485   1.6490   1.6494   1.6499   1.6503   1.6507   1.6511   1.6514
 SON VEL,M/SEC     7716.2   7726.2   7736.1   7745.9   7755.7   7765.5   7775.2   7784.8

 TRANSPORT PROPERTIES (GASES ONLY)
   CONDUCTIVITY IN UNITS OF MILLIWATTS/(CM)(K)

 VISC,MILLIPOISE  0.48745  0.48835  0.48924  0.49014  0.49103  0.49193  0.49282  0.49371

  WITH EQUILIBRIUM REACTIONS

 Cp, KJ/(KG)(K)   21.1410  21.1264  21.1125  21.0992  21.0865  21.0744  21.0628  21.0517
 CONDUCTIVITY     15.5110  15.5257  15.5408  15.5564  15.5725  15.5889  15.6057  15.6229
 PRANDTL NUMBER    0.6644   0.6645   0.6646   0.6648   0.6649   0.6650   0.6651   0.6653

  WITH FROZEN REACTIONS

 Cp, KJ/(KG)(K)   20.6220  20.6220  20.6221  20.6221  20.6221  20.6221  20.6222  20.6222
 CONDUCTIVITY     15.0742  15.1020  15.1299  15.1577  15.1855  15.2133  15.2411  15.2689
 PRANDTL NUMBER    0.6669   0.6668   0.6668   0.6668   0.6668   0.6668   0.6668   0.6668

 MOLE FRACTIONS

 *e-              0.00001  0.00001  0.00001  0.00001  0.00001  0.00001  0.00001  0.00001
 *H               0.99963  0.99964  0.99965  0.99965  0.99966  0.99967  0.99968  0.99969
 *H+              0.00001  0.00001  0.00001  0.00001  0.00001  0.00001  0.00001  0.00001
 *H2              0.00036  0.00035  0.00034  0.00033  0.00032  0.00031  0.00031  0.00030

  * THERMODYNAMIC PROPERTIES FITTED TO 20000.K

 NOTE. WEIGHT FRACTION OF FUEL IN TOTAL FUELS AND OF OXIDANT IN TOTAL OXIDANTS









               THERMODYNAMIC EQUILIBRIUM PROPERTIES AT ASSIGNED

                           TEMPERATURE AND PRESSURE

 CASE =                

             REACTANT                    WT FRACTION      ENERGY      TEMP
                                          (SEE NOTE)     KJ/KG-MOL      K  
             H2                           1.0000000         0.000      0.000

 O/F=    0.00000  %FUEL=100.000000  R,EQ.RATIO= 0.000000  PHI,EQ.RATIO= 0.000000

 THERMODYNAMIC PROPERTIES

 P, BAR           0.00310  0.00310  0.00310  0.00310  0.00350  0.00350  0.00350  0.00350
 T, K             4460.00  4470.00  4480.00  4490.00  4350.00  4360.00  4370.00  4380.00
 RHO, KG/CU M    8.4284-6 8.4095-6 8.3907-6 8.3719-6 9.7582-6 9.7357-6 9.7133-6 9.6910-6
 H, KJ/KG        301987.4 302197.8 302408.1 302618.2 299641.6 299854.0 300066.3 300278.4
 U, KJ/KG        265207.2 265334.8 265462.3 265589.7 263774.3 263903.8 264033.2 264162.4
 G, KJ/KG       -666853.2-669025.7-671198.7-673372.1-638633.8-640791.0-642948.7-645106.9
 S, KJ/(KG)(K)   217.2288 217.2759 217.3229 217.3698 215.6955 215.7443 215.7929 215.8414

 M, (1/n)           1.008    1.008    1.008    1.008    1.008    1.008    1.008    1.008
 (dLV/dLP)t      -1.00029 -1.00028 -1.00028 -1.00027 -1.00045 -1.00044 -1.00042 -1.00041
 (dLV/dLT)p        1.0038   1.0037   1.0036   1.0035   1.0058   1.0056   1.0055   1.0053
 Cp, KJ/(KG)(K)   21.0412  21.0312  21.0216  21.0126  21.2558  21.2369  21.2187  21.2013
 GAMMAs            1.6518   1.6521   1.6524   1.6527   1.6447   1.6453   1.6459   1.6465
 SON VEL,M/SEC     7794.4   7803.9   7813.4   7822.9   7680.6   7690.9   7701.2   7711.4

 TRANSPORT PROPERTIES (GASES ONLY)
   CONDUCTIVITY IN UNITS OF MILLIWATTS/(CM)(K)

 VISC,MILLIPOISE  0.49460  0.49550  0.49639  0.49728  0.48482  0.48571  0.48661  0.48750

  WITH EQUILIBRIUM REACTIONS

 Cp, KJ/(KG)(K)   21.0412  21.0312  21.0216  21.0126  21.2558  21.2369  21.2187  21.2013
 CONDUCTIVITY     15.6405  15.6584  15.6767  15.6953  15.5317  15.5429  15.5547  15.5671
 PRANDTL NUMBER    0.6654   0.6655   0.6656   0.6657   0.6635   0.6636   0.6638   0.6639

  WITH FROZEN REACTIONS

 Cp, KJ/(KG)(K)   20.6222  20.6222  20.6223  20.6223  20.6218  20.6218  20.6219  20.6219
 CONDUCTIVITY     15.2967  15.3245  15.3522  15.3800  14.9914  15.0192  15.0471  15.0749
 PRANDTL NUMBER    0.6668   0.6668   0.6668   0.6668   0.6669   0.6669   0.6669   0.6669

 MOLE FRACTIONS

 *e-              0.00001  0.00001  0.00001  0.00001  0.00000  0.00000  0.00000  0.00001
 *H               0.99970  0.99970  0.99971  0.99972  0.99954  0.99956  0.99957  0.99958
 *H+              0.00001  0.00001  0.00001  0.00001  0.00000  0.00000  0.00000  0.00001
 *H2              0.00029  0.00028  0.00027  0.00027  0.00045  0.00043  0.00042  0.00041

  * THERMODYNAMIC PROPERTIES FITTED TO 20000.K

 NOTE. WEIGHT FRACTION OF FUEL IN TOTAL FUELS AND OF OXIDANT IN TOTAL OXIDANTS









               THERMODYNAMIC EQUILIBRIUM PROPERTIES AT ASSIGNED

                           TEMPERATURE AND PRESSURE

 CASE =                

             REACTANT                    WT FRACTION      ENERGY      TEMP
                                          (SEE NOTE)     KJ/KG-MOL      K  
             H2                           1.0000000         0.000      0.000

 O/F=    0.00000  %FUEL=100.000000  R,EQ.RATIO= 0.000000  PHI,EQ.RATIO= 0.000000

 THERMODYNAMIC PROPERTIES

 P, BAR           0.00350  0.00350  0.00350  0.00350  0.00350  0.00350  0.00350  0.00350
 T, K             4390.00  4400.00  4410.00  4420.00  4430.00  4440.00  4450.00  4460.00
 RHO, KG/CU M    9.6688-6 9.6467-6 9.6247-6 9.6028-6 9.5811-6 9.5594-6 9.5378-6 9.5163-6
 H, KJ/KG        300490.4 300702.1 300913.7 301125.2 301336.5 301547.7 301758.7 301969.7
 U, KJ/KG        264291.4 264420.3 264549.0 264677.6 264806.1 264934.5 265062.7 265190.8
 G, KJ/KG       -647265.5-649424.7-651584.3-653744.4-655905.0-658066.0-660227.6-662389.6
 S, KJ/(KG)(K)   215.8897 215.9379 215.9859 216.0338 216.0816 216.1292 216.1767 216.2240

 M, (1/n)           1.008    1.008    1.008    1.008    1.008    1.008    1.008    1.008
 (dLV/dLP)t      -1.00040 -1.00039 -1.00038 -1.00037 -1.00036 -1.00035 -1.00034 -1.00033
 (dLV/dLT)p        1.0052   1.0050   1.0049   1.0047   1.0046   1.0045   1.0043   1.0042
 Cp, KJ/(KG)(K)   21.1846  21.1687  21.1534  21.1388  21.1248  21.1114  21.0986  21.0864
 GAMMAs            1.6471   1.6476   1.6481   1.6486   1.6490   1.6495   1.6499   1.6503
 SON VEL,M/SEC     7721.5   7731.6   7741.6   7751.6   7761.5   7771.3   7781.1   7790.8

 TRANSPORT PROPERTIES (GASES ONLY)
   CONDUCTIVITY IN UNITS OF MILLIWATTS/(CM)(K)

 VISC,MILLIPOISE  0.48840  0.48929  0.49018  0.49108  0.49197  0.49286  0.49375  0.49464

  WITH EQUILIBRIUM REACTIONS

 Cp, KJ/(KG)(K)   21.1846  21.1687  21.1534  21.1388  21.1248  21.1114  21.0986  21.0864
 CONDUCTIVITY     15.5801  15.5935  15.6075  15.6219  15.6368  15.6522  15.6680  15.6842
 PRANDTL NUMBER    0.6641   0.6642   0.6644   0.6645   0.6646   0.6648   0.6649   0.6650

  WITH FROZEN REACTIONS

 Cp, KJ/(KG)(K)   20.6219  20.6220  20.6220  20.6220  20.6221  20.6221  20.6221  20.6221
 CONDUCTIVITY     15.1028  15.1306  15.1584  15.1862  15.2140  15.2418  15.2696  15.2973
 PRANDTL NUMBER    0.6669   0.6669   0.6669   0.6669   0.6668   0.6668   0.6668   0.6668

 MOLE FRACTIONS

 *e-              0.00001  0.00001  0.00001  0.00001  0.00001  0.00001  0.00001  0.00001
 *H               0.99959  0.99960  0.99961  0.99962  0.99963  0.99964  0.99965  0.99966
 *H+              0.00001  0.00001  0.00001  0.00001  0.00001  0.00001  0.00001  0.00001
 *H2              0.00040  0.00039  0.00038  0.00037  0.00035  0.00034  0.00034  0.00033

  * THERMODYNAMIC PROPERTIES FITTED TO 20000.K

 NOTE. WEIGHT FRACTION OF FUEL IN TOTAL FUELS AND OF OXIDANT IN TOTAL OXIDANTS









               THERMODYNAMIC EQUILIBRIUM PROPERTIES AT ASSIGNED

                           TEMPERATURE AND PRESSURE

 CASE =                

             REACTANT                    WT FRACTION      ENERGY      TEMP
                                          (SEE NOTE)     KJ/KG-MOL      K  
             H2                           1.0000000         0.000      0.000

 O/F=    0.00000  %FUEL=100.000000  R,EQ.RATIO= 0.000000  PHI,EQ.RATIO= 0.000000

 THERMODYNAMIC PROPERTIES

 P, BAR           0.00350  0.00350  0.00350  0.00390  0.00390  0.00390  0.00390  0.00390
 T, K             4470.00  4480.00  4490.00  4350.00  4360.00  4370.00  4380.00  4390.00
 RHO, KG/CU M    9.4950-6 9.4737-6 9.4525-6 1.0874-5 1.0849-5 1.0824-5 1.0799-5 1.0774-5
 H, KJ/KG        302180.5 302391.2 302601.7 299617.8 299830.9 300043.8 300256.5 300469.1
 U, KJ/KG        265318.8 265446.7 265574.5 263752.3 263882.4 264012.4 264142.2 264271.8
 G, KJ/KG       -664552.0-666715.0-668878.4-634752.6-636900.8-639049.5-641198.7-643348.4
 S, KJ/(KG)(K)   216.2713 216.3183 216.3653 214.7978 214.8467 214.8955 214.9441 214.9926

 M, (1/n)           1.008    1.008    1.008    1.008    1.008    1.008    1.008    1.008
 (dLV/dLP)t      -1.00032 -1.00031 -1.00030 -1.00050 -1.00049 -1.00047 -1.00046 -1.00045
 (dLV/dLT)p        1.0041   1.0040   1.0039   1.0065   1.0063   1.0061   1.0059   1.0057
 Cp, KJ/(KG)(K)   21.0747  21.0636  21.0530  21.3233  21.3019  21.2815  21.2619  21.2431
 GAMMAs            1.6507   1.6510   1.6514   1.6425   1.6432   1.6439   1.6445   1.6452
 SON VEL,M/SEC     7800.5   7810.1   7819.6   7675.3   7685.8   7696.2   7706.6   7716.9

 TRANSPORT PROPERTIES (GASES ONLY)
   CONDUCTIVITY IN UNITS OF MILLIWATTS/(CM)(K)

 VISC,MILLIPOISE  0.49554  0.49643  0.49732  0.48487  0.48576  0.48666  0.48755  0.48844

  WITH EQUILIBRIUM REACTIONS

 Cp, KJ/(KG)(K)   21.0747  21.0636  21.0530  21.3233  21.3019  21.2815  21.2619  21.2431
 CONDUCTIVITY     15.7008  15.7178  15.7351  15.5935  15.6028  15.6127  15.6233  15.6344
 PRANDTL NUMBER    0.6651   0.6653   0.6654   0.6630   0.6632   0.6634   0.6635   0.6637

  WITH FROZEN REACTIONS

 Cp, KJ/(KG)(K)   20.6222  20.6222  20.6222  20.6217  20.6217  20.6218  20.6218  20.6219
 CONDUCTIVITY     15.3251  15.3528  15.3805  14.9922  15.0200  15.0479  15.0757  15.1035
 PRANDTL NUMBER    0.6668   0.6668   0.6668   0.6669   0.6669   0.6669   0.6669   0.6669

 MOLE FRACTIONS

 *e-              0.00001  0.00001  0.00001  0.00000  0.00000  0.00000  0.00000  0.00001
 *H               0.99967  0.99968  0.99968  0.99949  0.99951  0.99952  0.99953  0.99955
 *H+              0.00001  0.00001  0.00001  0.00000  0.00000  0.00000  0.00000  0.00001
 *H2              0.00032  0.00031  0.00030  0.00050  0.00048  0.00047  0.00046  0.00044

  * THERMODYNAMIC PROPERTIES FITTED TO 20000.K

 NOTE. WEIGHT FRACTION OF FUEL IN TOTAL FUELS AND OF OXIDANT IN TOTAL OXIDANTS









               THERMODYNAMIC EQUILIBRIUM PROPERTIES AT ASSIGNED

                           TEMPERATURE AND PRESSURE

 CASE =                

             REACTANT                    WT FRACTION      ENERGY      TEMP
                                          (SEE NOTE)     KJ/KG-MOL      K  
             H2                           1.0000000         0.000      0.000

 O/F=    0.00000  %FUEL=100.000000  R,EQ.RATIO= 0.000000  PHI,EQ.RATIO= 0.000000

 THERMODYNAMIC PROPERTIES

 P, BAR           0.00390  0.00390  0.00390  0.00390  0.00390  0.00390  0.00390  0.00390
 T, K             4400.00  4410.00  4420.00  4430.00  4440.00  4450.00  4460.00  4470.00
 RHO, KG/CU M    1.0750-5 1.0725-5 1.0701-5 1.0676-5 1.0652-5 1.0628-5 1.0604-5 1.0580-5
 H, KJ/KG        300681.4 300893.6 301105.6 301317.4 301529.1 301740.6 301952.0 302163.2
 U, KJ/KG        264401.2 264530.4 264659.5 264788.5 264917.3 265046.0 265174.5 265302.9
 G, KJ/KG       -645498.6-647649.2-649800.4-651952.0-654104.1-656256.6-658409.7-660563.2
 S, KJ/(KG)(K)   215.0409 215.0891 215.1371 215.1850 215.2327 215.2803 215.3277 215.3750

 M, (1/n)           1.008    1.008    1.008    1.008    1.008    1.008    1.008    1.008
 (dLV/dLP)t      -1.00043 -1.00042 -1.00041 -1.00040 -1.00039 -1.00038 -1.00037 -1.00036
 (dLV/dLT)p        1.0056   1.0054   1.0052   1.0051   1.0049   1.0048   1.0047   1.0045
 Cp, KJ/(KG)(K)   21.2251  21.2079  21.1913  21.1755  21.1604  21.1459  21.1320  21.1187
 GAMMAs            1.6458   1.6463   1.6469   1.6474   1.6479   1.6484   1.6488   1.6493
 SON VEL,M/SEC     7727.1   7737.3   7747.4   7757.4   7767.4   7777.3   7787.1   7796.9

 TRANSPORT PROPERTIES (GASES ONLY)
   CONDUCTIVITY IN UNITS OF MILLIWATTS/(CM)(K)

 VISC,MILLIPOISE  0.48933  0.49023  0.49112  0.49201  0.49290  0.49379  0.49468  0.49557

  WITH EQUILIBRIUM REACTIONS

 Cp, KJ/(KG)(K)   21.2251  21.2079  21.1913  21.1755  21.1604  21.1459  21.1320  21.1187
 CONDUCTIVITY     15.6462  15.6585  15.6714  15.6848  15.6987  15.7131  15.7279  15.7432
 PRANDTL NUMBER    0.6638   0.6640   0.6641   0.6642   0.6644   0.6645   0.6647   0.6648

  WITH FROZEN REACTIONS

 Cp, KJ/(KG)(K)   20.6219  20.6219  20.6220  20.6220  20.6220  20.6220  20.6221  20.6221
 CONDUCTIVITY     15.1313  15.1591  15.1869  15.2147  15.2425  15.2702  15.2980  15.3257
 PRANDTL NUMBER    0.6669   0.6669   0.6669   0.6669   0.6669   0.6669   0.6668   0.6668

 MOLE FRACTIONS

 *e-              0.00001  0.00001  0.00001  0.00001  0.00001  0.00001  0.00001  0.00001
 *H               0.99956  0.99957  0.99958  0.99959  0.99960  0.99961  0.99962  0.99963
 *H+              0.00001  0.00001  0.00001  0.00001  0.00001  0.00001  0.00001  0.00001
 *H2              0.00043  0.00042  0.00041  0.00040  0.00038  0.00037  0.00036  0.00035

  * THERMODYNAMIC PROPERTIES FITTED TO 20000.K

 NOTE. WEIGHT FRACTION OF FUEL IN TOTAL FUELS AND OF OXIDANT IN TOTAL OXIDANTS









               THERMODYNAMIC EQUILIBRIUM PROPERTIES AT ASSIGNED

                           TEMPERATURE AND PRESSURE

 CASE =                

             REACTANT                    WT FRACTION      ENERGY      TEMP
                                          (SEE NOTE)     KJ/KG-MOL      K  
             H2                           1.0000000         0.000      0.000

 O/F=    0.00000  %FUEL=100.000000  R,EQ.RATIO= 0.000000  PHI,EQ.RATIO= 0.000000

 THERMODYNAMIC PROPERTIES

 P, BAR           0.00390  0.00390  0.00440  0.00440  0.00440  0.00440  0.00440  0.00440
 T, K             4480.00  4490.00  4350.00  4360.00  4370.00  4380.00  4390.00  4400.00
 RHO, KG/CU M    1.0557-5 1.0533-5 1.2269-5 1.2241-5 1.2212-5 1.2184-5 1.2156-5 1.2128-5
 H, KJ/KG        302374.4 302585.4 299588.1 299802.0 300015.8 300229.2 300442.5 300655.6
 U, KJ/KG        265431.2 265559.4 263724.9 263855.8 263986.5 264117.0 264247.3 264377.4
 G, KJ/KG       -662717.2-664871.6-630426.4-632564.6-634703.3-636842.5-638982.1-641122.3
 S, KJ/(KG)(K)   215.4222 215.4693 213.7964 213.8456 213.8945 213.9433 213.9919 214.0404

 M, (1/n)           1.008    1.008    1.009    1.008    1.008    1.008    1.008    1.008
 (dLV/dLP)t      -1.00035 -1.00034 -1.00056 -1.00055 -1.00053 -1.00052 -1.00050 -1.00049
 (dLV/dLT)p        1.0044   1.0043   1.0073   1.0071   1.0068   1.0066   1.0064   1.0063
 Cp, KJ/(KG)(K)   21.1060  21.0939  21.4078  21.3835  21.3603  21.3380  21.3166  21.2960
 GAMMAs            1.6497   1.6501   1.6398   1.6406   1.6414   1.6421   1.6428   1.6435
 SON VEL,M/SEC     7806.7   7816.4   7668.7   7679.4   7690.1   7700.6   7711.1   7721.5

 TRANSPORT PROPERTIES (GASES ONLY)
   CONDUCTIVITY IN UNITS OF MILLIWATTS/(CM)(K)

 VISC,MILLIPOISE  0.49647  0.49736  0.48494  0.48583  0.48672  0.48761  0.48850  0.48939

  WITH EQUILIBRIUM REACTIONS

 Cp, KJ/(KG)(K)   21.1060  21.0939  21.4078  21.3835  21.3603  21.3380  21.3166  21.2960
 CONDUCTIVITY     15.7589  15.7750  15.6707  15.6775  15.6851  15.6934  15.7024  15.7121
 PRANDTL NUMBER    0.6649   0.6651   0.6625   0.6626   0.6628   0.6630   0.6632   0.6633

  WITH FROZEN REACTIONS

 Cp, KJ/(KG)(K)   20.6221  20.6222  20.6216  20.6216  20.6217  20.6217  20.6217  20.6218
 CONDUCTIVITY     15.3534  15.3811  14.9932  15.0210  15.0489  15.0767  15.1045  15.1322
 PRANDTL NUMBER    0.6668   0.6668   0.6670   0.6670   0.6670   0.6669   0.6669   0.6669

 MOLE FRACTIONS

 *e-              0.00001  0.00001  0.00000  0.00000  0.00000  0.00000  0.00000  0.00001
 *H               0.99964  0.99965  0.99943  0.99945  0.99946  0.99948  0.99949  0.99950
 *H+              0.00001  0.00001  0.00000  0.00000  0.00000  0.00000  0.00000  0.00001
 *H2              0.00034  0.00033  0.00056  0.00055  0.00053  0.00051  0.00050  0.00049

  * THERMODYNAMIC PROPERTIES FITTED TO 20000.K

 NOTE. WEIGHT FRACTION OF FUEL IN TOTAL FUELS AND OF OXIDANT IN TOTAL OXIDANTS









               THERMODYNAMIC EQUILIBRIUM PROPERTIES AT ASSIGNED

                           TEMPERATURE AND PRESSURE

 CASE =                

             REACTANT                    WT FRACTION      ENERGY      TEMP
                                          (SEE NOTE)     KJ/KG-MOL      K  
             H2                           1.0000000         0.000      0.000

 O/F=    0.00000  %FUEL=100.000000  R,EQ.RATIO= 0.000000  PHI,EQ.RATIO= 0.000000

 THERMODYNAMIC PROPERTIES

 P, BAR           0.00440  0.00440  0.00440  0.00440  0.00440  0.00440  0.00440  0.00440
 T, K             4410.00  4420.00  4430.00  4440.00  4450.00  4460.00  4470.00  4480.00
 RHO, KG/CU M    1.2101-5 1.2073-5 1.2046-5 1.2019-5 1.1991-5 1.1964-5 1.1937-5 1.1911-5
 H, KJ/KG        300868.4 301081.1 301293.6 301505.9 301718.0 301930.0 302141.8 302353.5
 U, KJ/KG        264507.3 264637.0 264766.5 264895.9 265025.2 265154.2 265283.2 265412.0
 G, KJ/KG       -643262.9-645404.1-647545.7-649687.8-651830.3-653973.4-656116.9-658260.9
 S, KJ/(KG)(K)   214.0887 214.1369 214.1849 214.2328 214.2805 214.3281 214.3756 214.4229

 M, (1/n)           1.008    1.008    1.008    1.008    1.008    1.008    1.008    1.008
 (dLV/dLP)t      -1.00047 -1.00046 -1.00045 -1.00044 -1.00042 -1.00041 -1.00040 -1.00039
 (dLV/dLT)p        1.0061   1.0059   1.0057   1.0056   1.0054   1.0052   1.0051   1.0050
 Cp, KJ/(KG)(K)   21.2763  21.2574  21.2393  21.2220  21.2053  21.1894  21.1741  21.1595
 GAMMAs            1.6441   1.6447   1.6453   1.6459   1.6464   1.6470   1.6475   1.6479
 SON VEL,M/SEC     7731.9   7742.2   7752.4   7762.5   7772.6   7782.6   7792.5   7802.4

 TRANSPORT PROPERTIES (GASES ONLY)
   CONDUCTIVITY IN UNITS OF MILLIWATTS/(CM)(K)

 VISC,MILLIPOISE  0.49028  0.49117  0.49206  0.49295  0.49384  0.49473  0.49562  0.49651

  WITH EQUILIBRIUM REACTIONS

 Cp, KJ/(KG)(K)   21.2763  21.2574  21.2393  21.2220  21.2053  21.1894  21.1741  21.1595
 CONDUCTIVITY     15.7224  15.7333  15.7448  15.7569  15.7695  15.7826  15.7962  15.8103
 PRANDTL NUMBER    0.6635   0.6636   0.6638   0.6639   0.6641   0.6642   0.6644   0.6645

  WITH FROZEN REACTIONS

 Cp, KJ/(KG)(K)   20.6218  20.6219  20.6219  20.6219  20.6220  20.6220  20.6220  20.6221
 CONDUCTIVITY     15.1600  15.1878  15.2155  15.2433  15.2710  15.2987  15.3265  15.3542
 PRANDTL NUMBER    0.6669   0.6669   0.6669   0.6669   0.6669   0.6669   0.6669   0.6669

 MOLE FRACTIONS

 *e-              0.00001  0.00001  0.00001  0.00001  0.00001  0.00001  0.00001  0.00001
 *H               0.99952  0.99953  0.99954  0.99955  0.99957  0.99958  0.99959  0.99960
 *H+              0.00001  0.00001  0.00001  0.00001  0.00001  0.00001  0.00001  0.00001
 *H2              0.00047  0.00046  0.00045  0.00043  0.00042  0.00041  0.00040  0.00039

  * THERMODYNAMIC PROPERTIES FITTED TO 20000.K

 NOTE. WEIGHT FRACTION OF FUEL IN TOTAL FUELS AND OF OXIDANT IN TOTAL OXIDANTS









               THERMODYNAMIC EQUILIBRIUM PROPERTIES AT ASSIGNED

                           TEMPERATURE AND PRESSURE

 CASE =                

             REACTANT                    WT FRACTION      ENERGY      TEMP
                                          (SEE NOTE)     KJ/KG-MOL      K  
             H2                           1.0000000         0.000      0.000

 O/F=    0.00000  %FUEL=100.000000  R,EQ.RATIO= 0.000000  PHI,EQ.RATIO= 0.000000

 THERMODYNAMIC PROPERTIES

 P, BAR           0.00440
 T, K             4490.00
 RHO, KG/CU M    1.1884-5
 H, KJ/KG        302565.0
 U, KJ/KG        265540.6
 G, KJ/KG       -660405.3
 S, KJ/(KG)(K)   214.4700

 M, (1/n)           1.008
 (dLV/dLP)t      -1.00038
 (dLV/dLT)p        1.0048
 Cp, KJ/(KG)(K)   21.1455
 GAMMAs            1.6484
 SON VEL,M/SEC     7812.2

 TRANSPORT PROPERTIES (GASES ONLY)
   CONDUCTIVITY IN UNITS OF MILLIWATTS/(CM)(K)

 VISC,MILLIPOISE  0.49740

  WITH EQUILIBRIUM REACTIONS

 Cp, KJ/(KG)(K)   21.1455
 CONDUCTIVITY     15.8249
 PRANDTL NUMBER    0.6646

  WITH FROZEN REACTIONS

 Cp, KJ/(KG)(K)   20.6221
 CONDUCTIVITY     15.3818
 PRANDTL NUMBER    0.6669

 MOLE FRACTIONS

 *e-              0.00001
 *H               0.99961
 *H+              0.00001
 *H2              0.00038

  * THERMODYNAMIC PROPERTIES FITTED TO 20000.K

 NOTE. WEIGHT FRACTION OF FUEL IN TOTAL FUELS AND OF OXIDANT IN TOTAL OXIDANTS



  
