
 *******************************************************************************

         NASA-GLENN CHEMICAL EQUILIBRIUM PROGRAM CEA2, MAY 21, 2004
                   BY  BONNIE MCBRIDE AND SANFORD GORDON
      REFS: NASA RP-1311, PART I, 1994 AND NASA RP-1311, PART II, 1996

 *******************************************************************************



  prob tp ions
  p,bar= 0.0049,0.0054,0.006,0.0067,0.0074,0.00825,0.0091,0.01,0.011,0.012,0.0132
 ,0.0148,0.0165,0.018,0.02
  t,k= 2850,2860,2870,2880,2890,2900,2910,2920,2930,2940,2950,2960,2970,2980,2990
  
  reac
  na H2                wt%=100.0000
  
  output short
  output siunits
  output transport
  
 end





               THERMODYNAMIC EQUILIBRIUM PROPERTIES AT ASSIGNED

                           TEMPERATURE AND PRESSURE

 CASE =                

             REACTANT                    WT FRACTION      ENERGY      TEMP
                                          (SEE NOTE)     KJ/KG-MOL      K  
             H2                           1.0000000         0.000      0.000

 O/F=    0.00000  %FUEL=100.000000  R,EQ.RATIO= 0.000000  PHI,EQ.RATIO= 0.000000

 THERMODYNAMIC PROPERTIES

 P, BAR           0.00490  0.00490  0.00490  0.00490  0.00490  0.00490  0.00490  0.00490
 T, K             2850.00  2860.00  2870.00  2880.00  2890.00  2900.00  2910.00  2920.00
 RHO, KG/CU M    2.6531-5 2.6221-5 2.5918-5 2.5622-5 2.5334-5 2.5053-5 2.4780-5 2.4514-5
 H, KJ/KG        171293.2 174455.7 177596.2 180710.4 183794.2 186843.6 189854.9 192824.3
 U, KJ/KG        152824.2 155768.1 158690.2 161586.4 164452.7 167285.4 170080.9 172835.9
 G, KJ/KG       -320675.7-322406.4-324149.1-325902.7-327667.2-329442.2-331227.7-333023.5
 S, KJ/(KG)(K)   172.6207 173.7280 174.8241 175.9073 176.9763 178.0296 179.0662 180.0849

 M, (1/n)           1.283    1.272    1.262    1.252    1.242    1.233    1.224    1.215
 (dLV/dLP)t      -1.12246 -1.12145 -1.12028 -1.11895 -1.11748 -1.11587 -1.11412 -1.11225
 (dLV/dLT)p        3.3716   3.3440   3.3135   3.2803   3.2445   3.2063   3.1658   3.1232
 Cp, KJ/(KG)(K)  317.2174 315.2256 312.8051 309.9669 306.7246 303.0943 299.0947 294.7463
 GAMMAs            1.1233   1.1240   1.1248   1.1256   1.1264   1.1272   1.1281   1.1290
 SON VEL,M/SEC     4554.8   4583.2   4611.4   4639.6   4667.6   4695.4   4723.1   4750.6

 TRANSPORT PROPERTIES (GASES ONLY)
   CONDUCTIVITY IN UNITS OF MILLIWATTS/(CM)(K)

 VISC,MILLIPOISE  0.46214  0.46077  0.45933  0.45783  0.45627  0.45466  0.45301  0.45133

  WITH EQUILIBRIUM REACTIONS

 Cp, KJ/(KG)(K)  317.2174 315.2256 312.8051 309.9669 306.7246 303.0943 299.0947 294.7463
 CONDUCTIVITY    245.3078 242.4933 239.3970 236.0332 232.4178 228.5676 224.5009 220.2364
 PRANDTL NUMBER    0.5976   0.5990   0.6002   0.6012   0.6021   0.6029   0.6035   0.6040

  WITH FROZEN REACTIONS

 Cp, KJ/(KG)(K)   19.5923  19.6285  19.6642  19.6992  19.7336  19.7674  19.8004  19.8328
 CONDUCTIVITY     12.5770  12.5626  12.5475  12.5315  12.5149  12.4977  12.4801  12.4622
 PRANDTL NUMBER    0.7199   0.7199   0.7199   0.7197   0.7194   0.7191   0.7187   0.7183

 MOLE FRACTIONS

 *H               0.72707  0.73755  0.74777  0.75773  0.76744  0.77688  0.78605  0.79495
 *H2              0.27292  0.26245  0.25223  0.24227  0.23256  0.22312  0.21395  0.20505

  * THERMODYNAMIC PROPERTIES FITTED TO 20000.K

 NOTE. WEIGHT FRACTION OF FUEL IN TOTAL FUELS AND OF OXIDANT IN TOTAL OXIDANTS









               THERMODYNAMIC EQUILIBRIUM PROPERTIES AT ASSIGNED

                           TEMPERATURE AND PRESSURE

 CASE =                

             REACTANT                    WT FRACTION      ENERGY      TEMP
                                          (SEE NOTE)     KJ/KG-MOL      K  
             H2                           1.0000000         0.000      0.000

 O/F=    0.00000  %FUEL=100.000000  R,EQ.RATIO= 0.000000  PHI,EQ.RATIO= 0.000000

 THERMODYNAMIC PROPERTIES

 P, BAR           0.00490  0.00490  0.00490  0.00490  0.00490  0.00490  0.00490  0.00540
 T, K             2930.00  2940.00  2950.00  2960.00  2970.00  2980.00  2990.00  2850.00
 RHO, KG/CU M    2.4256-5 2.4004-5 2.3760-5 2.3523-5 2.3294-5 2.3071-5 2.2854-5 2.9590-5
 H, KJ/KG        195748.7 198624.8 201449.7 204220.8 206935.7 209592.4 212189.0 167041.6
 U, KJ/KG        175547.2 178211.9 180827.1 183390.5 185899.9 188353.3 190749.0 148792.1
 G, KJ/KG       -334829.3-336645.1-338470.6-340305.5-342149.7-344003.0-345865.1-318890.8
 S, KJ/(KG)(K)   181.0847 182.0646 183.0238 183.9616 184.8773 185.7703 186.6401 170.5026

 M, (1/n)           1.206    1.198    1.189    1.182    1.174    1.167    1.160    1.298
 (dLV/dLP)t      -1.11027 -1.10818 -1.10600 -1.10374 -1.10140 -1.09900 -1.09655 -1.12362
 (dLV/dLT)p        3.0788   3.0328   2.9853   2.9365   2.8867   2.8361   2.7848   3.3940
 Cp, KJ/(KG)(K)  290.0716 285.0950 279.8418 274.3387 268.6128 262.6918 256.6036 316.4085
 GAMMAs            1.1300   1.1310   1.1320   1.1331   1.1342   1.1354   1.1366   1.1230
 SON VEL,M/SEC     4777.8   4804.9   4831.7   4858.2   4884.5   4910.6   4936.4   4527.0

 TRANSPORT PROPERTIES (GASES ONLY)
   CONDUCTIVITY IN UNITS OF MILLIWATTS/(CM)(K)

 VISC,MILLIPOISE  0.44963  0.44791  0.44618  0.44445  0.44272  0.44101  0.43931  0.46589

  WITH EQUILIBRIUM REACTIONS

 Cp, KJ/(KG)(K)  290.0716 285.0950 279.8418 274.3387 268.6127 262.6918 256.6036 316.4085
 CONDUCTIVITY    215.7937 211.1928 206.4539 201.5973 196.6431 191.6112 186.5210 247.5775
 PRANDTL NUMBER    0.6044   0.6046   0.6048   0.6048   0.6048   0.6046   0.6044   0.5954

  WITH FROZEN REACTIONS

 Cp, KJ/(KG)(K)   19.8643  19.8951  19.9251  19.9542  19.9825  20.0100  20.0366  19.5474
 CONDUCTIVITY     12.4443  12.4264  12.4087  12.3912  12.3742  12.3576  12.3417  12.6515
 PRANDTL NUMBER    0.7177   0.7171   0.7165   0.7157   0.7149   0.7141   0.7132   0.7198

 MOLE FRACTIONS

 *H               0.80357  0.81192  0.82000  0.82781  0.83534  0.84260  0.84960  0.71176
 *H2              0.19643  0.18808  0.18000  0.17219  0.16466  0.15740  0.15040  0.28824

  * THERMODYNAMIC PROPERTIES FITTED TO 20000.K

 NOTE. WEIGHT FRACTION OF FUEL IN TOTAL FUELS AND OF OXIDANT IN TOTAL OXIDANTS









               THERMODYNAMIC EQUILIBRIUM PROPERTIES AT ASSIGNED

                           TEMPERATURE AND PRESSURE

 CASE =                

             REACTANT                    WT FRACTION      ENERGY      TEMP
                                          (SEE NOTE)     KJ/KG-MOL      K  
             H2                           1.0000000         0.000      0.000

 O/F=    0.00000  %FUEL=100.000000  R,EQ.RATIO= 0.000000  PHI,EQ.RATIO= 0.000000

 THERMODYNAMIC PROPERTIES

 P, BAR           0.00540  0.00540  0.00540  0.00540  0.00540  0.00540  0.00540  0.00540
 T, K             2860.00  2870.00  2880.00  2890.00  2900.00  2910.00  2920.00  2930.00
 RHO, KG/CU M    2.9241-5 2.8901-5 2.8568-5 2.8243-5 2.7926-5 2.7617-5 2.7316-5 2.7023-5
 H, KJ/KG        170199.3 173341.4 176463.6 179561.7 182631.9 185670.0 188672.4 191635.5
 U, KJ/KG        151732.3 154656.6 157561.1 160441.7 163294.8 166116.5 168903.5 171652.2
 G, KJ/KG       -320601.3-322322.8-324055.3-325798.6-327552.6-329317.1-331092.0-332877.1
 S, KJ/(KG)(K)   171.6086 172.7053 173.7913 174.8652 175.9257 176.9715 178.0015 179.0145

 M, (1/n)           1.288    1.277    1.267    1.257    1.247    1.237    1.228    1.219
 (dLV/dLP)t      -1.12285 -1.12192 -1.12083 -1.11959 -1.11819 -1.11666 -1.11500 -1.11321
 (dLV/dLT)p        3.3710   3.3451   3.3163   3.2847   3.2506   3.2140   3.1751   3.1342
 Cp, KJ/(KG)(K)  315.0590 313.2829 311.0870 308.4808 305.4761 302.0876 298.3319 294.2282
 GAMMAs            1.1237   1.1244   1.1251   1.1259   1.1267   1.1275   1.1284   1.1293
 SON VEL,M/SEC     4555.3   4583.5   4611.7   4639.7   4667.7   4695.4   4723.0   4750.5

 TRANSPORT PROPERTIES (GASES ONLY)
   CONDUCTIVITY IN UNITS OF MILLIWATTS/(CM)(K)

 VISC,MILLIPOISE  0.46465  0.46333  0.46193  0.46047  0.45895  0.45739  0.45578  0.45413

  WITH EQUILIBRIUM REACTIONS

 Cp, KJ/(KG)(K)  315.0590 313.2829 311.0870 308.4808 305.4761 302.0875 298.3319 294.2282
 CONDUCTIVITY    245.2199 242.5699 239.6395 236.4418 232.9918 229.3052 225.3992 221.2917
 PRANDTL NUMBER    0.5970   0.5984   0.5997   0.6008   0.6017   0.6026   0.6033   0.6038

  WITH FROZEN REACTIONS

 Cp, KJ/(KG)(K)   19.5838  19.6197  19.6551  19.6899  19.7241  19.7576  19.7905  19.8226
 CONDUCTIVITY     12.6392  12.6258  12.6113  12.5958  12.5797  12.5629  12.5456  12.5281
 PRANDTL NUMBER    0.7199   0.7200   0.7199   0.7198   0.7196   0.7193   0.7190   0.7185

 MOLE FRACTIONS

 *H               0.72247  0.73294  0.74317  0.75316  0.76289  0.77236  0.78157  0.79051
 *H2              0.27753  0.26706  0.25683  0.24684  0.23711  0.22764  0.21843  0.20949

  * THERMODYNAMIC PROPERTIES FITTED TO 20000.K

 NOTE. WEIGHT FRACTION OF FUEL IN TOTAL FUELS AND OF OXIDANT IN TOTAL OXIDANTS









               THERMODYNAMIC EQUILIBRIUM PROPERTIES AT ASSIGNED

                           TEMPERATURE AND PRESSURE

 CASE =                

             REACTANT                    WT FRACTION      ENERGY      TEMP
                                          (SEE NOTE)     KJ/KG-MOL      K  
             H2                           1.0000000         0.000      0.000

 O/F=    0.00000  %FUEL=100.000000  R,EQ.RATIO= 0.000000  PHI,EQ.RATIO= 0.000000

 THERMODYNAMIC PROPERTIES

 P, BAR           0.00540  0.00540  0.00540  0.00540  0.00540  0.00540  0.00600  0.00600
 T, K             2940.00  2950.00  2960.00  2970.00  2980.00  2990.00  2850.00  2860.00
 RHO, KG/CU M    2.6737-5 2.6460-5 2.6191-5 2.5929-5 2.5675-5 2.5429-5 3.3310-5 3.2916-5
 H, KJ/KG        194555.9 197430.4 200256.1 203030.4 205750.8 208415.2 162451.4 165593.7
 U, KJ/KG        174359.5 177022.4 179638.3 182204.5 184718.9 187179.3 144438.9 147365.3
 G, KJ/KG       -334672.2-336477.2-338291.8-340116.0-341949.3-343791.7-316980.5-318668.2
 S, KJ/(KG)(K)   180.0095 180.9856 181.9419 182.8776 183.7920 184.6846 168.2217 169.3223

 M, (1/n)           1.210    1.202    1.194    1.186    1.178    1.171    1.316    1.305
 (dLV/dLP)t      -1.11130 -1.10929 -1.10718 -1.10498 -1.10270 -1.10036 -1.12448 -1.12397
 (dLV/dLT)p        3.0913   3.0467   3.0006   2.9532   2.9047   2.8552   3.4105   3.3927
 Cp, KJ/(KG)(K)  289.7972 285.0614 280.0448 274.7724 269.2701 263.5643 314.5321 313.8534
 GAMMAs            1.1302   1.1312   1.1322   1.1333   1.1344   1.1355   1.1227   1.1233
 SON VEL,M/SEC     4777.7   4804.7   4831.5   4858.1   4884.4   4910.5   4496.9   4525.0

 TRANSPORT PROPERTIES (GASES ONLY)
   CONDUCTIVITY IN UNITS OF MILLIWATTS/(CM)(K)

 VISC,MILLIPOISE  0.45245  0.45076  0.44905  0.44734  0.44562  0.44392  0.46975  0.46866

  WITH EQUILIBRIUM REACTIONS

 Cp, KJ/(KG)(K)  289.7972 285.0614 280.0448 274.7724 269.2701 263.5643 314.5321 313.8534
 CONDUCTIVITY    217.0011 212.5466 207.9477 203.2239 198.3947 193.4796 249.2814 247.4223
 PRANDTL NUMBER    0.6042   0.6045   0.6047   0.6048   0.6048   0.6047   0.5927   0.5945

  WITH FROZEN REACTIONS

 Cp, KJ/(KG)(K)   19.8541  19.8847  19.9146  19.9437  19.9721  19.9995  19.4990  19.5354
 CONDUCTIVITY     12.5104  12.4927  12.4750  12.4576  12.4405  12.4238  12.7296  12.7197
 PRANDTL NUMBER    0.7180   0.7175   0.7168   0.7162   0.7154   0.7146   0.7196   0.7198

 MOLE FRACTIONS

 *H               0.79919  0.80759  0.81573  0.82360  0.83120  0.83854  0.69481  0.70575
 *H2              0.20081  0.19241  0.18427  0.17640  0.16880  0.16146  0.30519  0.29425

  * THERMODYNAMIC PROPERTIES FITTED TO 20000.K

 NOTE. WEIGHT FRACTION OF FUEL IN TOTAL FUELS AND OF OXIDANT IN TOTAL OXIDANTS









               THERMODYNAMIC EQUILIBRIUM PROPERTIES AT ASSIGNED

                           TEMPERATURE AND PRESSURE

 CASE =                

             REACTANT                    WT FRACTION      ENERGY      TEMP
                                          (SEE NOTE)     KJ/KG-MOL      K  
             H2                           1.0000000         0.000      0.000

 O/F=    0.00000  %FUEL=100.000000  R,EQ.RATIO= 0.000000  PHI,EQ.RATIO= 0.000000

 THERMODYNAMIC PROPERTIES

 P, BAR           0.00600  0.00600  0.00600  0.00600  0.00600  0.00600  0.00600  0.00600
 T, K             2870.00  2880.00  2890.00  2900.00  2910.00  2920.00  2930.00  2940.00
 RHO, KG/CU M    3.2529-5 3.2151-5 3.1782-5 3.1421-5 3.1069-5 3.0725-5 3.0390-5 3.0064-5
 H, KJ/KG        168727.1 171847.4 174950.6 178032.5 181089.2 184116.8 187111.6 190070.1
 U, KJ/KG        150282.2 153185.7 156071.9 158937.0 161777.2 164588.8 167368.3 170112.4
 G, KJ/KG       -320366.8-322076.4-323796.8-325527.9-327269.6-329021.8-330784.2-332556.8
 S, KJ/(KG)(K)   170.4160 171.5013 172.5770 173.6415 174.6938 175.7324 176.7563 177.7643

 M, (1/n)           1.294    1.283    1.273    1.263    1.253    1.243    1.234    1.225
 (dLV/dLP)t      -1.12331 -1.12248 -1.12149 -1.12035 -1.11906 -1.11762 -1.11606 -1.11436
 (dLV/dLT)p        3.3717   3.3478   3.3211   3.2916   3.2594   3.2249   3.1880   3.1489
 Cp, KJ/(KG)(K)  312.7568 311.2448 309.3225 306.9974 304.2796 301.1818 297.7188 293.9074
 GAMMAs            1.1240   1.1247   1.1254   1.1262   1.1270   1.1278   1.1286   1.1295
 SON VEL,M/SEC     4553.2   4581.3   4609.4   4637.3   4665.2   4692.9   4720.5   4747.9

 TRANSPORT PROPERTIES (GASES ONLY)
   CONDUCTIVITY IN UNITS OF MILLIWATTS/(CM)(K)

 VISC,MILLIPOISE  0.46748  0.46622  0.46488  0.46348  0.46201  0.46049  0.45892  0.45732

  WITH EQUILIBRIUM REACTIONS

 Cp, KJ/(KG)(K)  312.7568 311.2448 309.3225 306.9974 304.2796 301.1818 297.7188 293.9074
 CONDUCTIVITY    245.2642 242.8159 240.0880 237.0927 233.8435 230.3549 226.6429 222.7240
 PRANDTL NUMBER    0.5961   0.5976   0.5989   0.6001   0.6012   0.6021   0.6028   0.6035

  WITH FROZEN REACTIONS

 Cp, KJ/(KG)(K)   19.5715  19.6071  19.6422  19.6767  19.7107  19.7441  19.7768  19.8088
 CONDUCTIVITY     12.7084  12.6958  12.6821  12.6674  12.6518  12.6356  12.6188  12.6017
 PRANDTL NUMBER    0.7199   0.7200   0.7200   0.7199   0.7198   0.7196   0.7192   0.7189

 MOLE FRACTIONS

 *H               0.71646  0.72696  0.73722  0.74724  0.75701  0.76654  0.77581  0.78482
 *H2              0.28354  0.27304  0.26278  0.25276  0.24299  0.23346  0.22419  0.21518

  * THERMODYNAMIC PROPERTIES FITTED TO 20000.K

 NOTE. WEIGHT FRACTION OF FUEL IN TOTAL FUELS AND OF OXIDANT IN TOTAL OXIDANTS









               THERMODYNAMIC EQUILIBRIUM PROPERTIES AT ASSIGNED

                           TEMPERATURE AND PRESSURE

 CASE =                

             REACTANT                    WT FRACTION      ENERGY      TEMP
                                          (SEE NOTE)     KJ/KG-MOL      K  
             H2                           1.0000000         0.000      0.000

 O/F=    0.00000  %FUEL=100.000000  R,EQ.RATIO= 0.000000  PHI,EQ.RATIO= 0.000000

 THERMODYNAMIC PROPERTIES

 P, BAR           0.00600  0.00600  0.00600  0.00600  0.00600  0.00670  0.00670  0.00670
 T, K             2950.00  2960.00  2970.00  2980.00  2990.00  2850.00  2860.00  2870.00
 RHO, KG/CU M    2.9746-5 2.9437-5 2.9136-5 2.8844-5 2.8560-5 3.7712-5 3.7264-5 3.6824-5
 H, KJ/KG        192988.7 195864.4 198694.1 201475.1 204204.9 157682.7 160798.2 163911.5
 U, KJ/KG        172817.9 175481.8 178101.2 180673.7 183196.8 139916.5 142818.3 145717.0
 G, KJ/KG       -334339.5-336131.9-337934.0-339745.5-341566.3-315006.4-316670.4-318345.3
 S, KJ/(KG)(K)   178.7553 179.7285 180.6828 181.6177 182.5322 165.8558 166.9471 168.0337

 M, (1/n)           1.216    1.207    1.199    1.191    1.183    1.334    1.323    1.312
 (dLV/dLP)t      -1.11255 -1.11063 -1.10861 -1.10649 -1.10429 -1.12493 -1.12471 -1.12431
 (dLV/dLT)p        3.1079   3.0651   3.0207   2.9749   2.9279   3.4194   3.4068   3.3911
 Cp, KJ/(KG)(K)  289.7668 285.3174 280.5813 275.5819 270.3436 311.5195 311.5056 311.0891
 GAMMAs            1.1304   1.1314   1.1323   1.1334   1.1344   1.1224   1.1230   1.1236
 SON VEL,M/SEC     4775.1   4802.1   4828.9   4855.5   4881.8   4465.5   4493.5   4521.5

 TRANSPORT PROPERTIES (GASES ONLY)
   CONDUCTIVITY IN UNITS OF MILLIWATTS/(CM)(K)

 VISC,MILLIPOISE  0.45568  0.45401  0.45233  0.45064  0.44895  0.47355  0.47262  0.47161

  WITH EQUILIBRIUM REACTIONS

 Cp, KJ/(KG)(K)  289.7668 285.3173 280.5813 275.5819 270.3436 311.5195 311.5056 311.0891
 CONDUCTIVITY    218.6160 214.3368 209.9049 205.3392 200.6585 250.2300 248.8892 247.2470
 PRANDTL NUMBER    0.6040   0.6044   0.6046   0.6048   0.6049   0.5895   0.5915   0.5934

  WITH FROZEN REACTIONS

 Cp, KJ/(KG)(K)   19.8402  19.8708  19.9007  19.9298  19.9582  19.4486  19.4851  19.5212
 CONDUCTIVITY     12.5842  12.5667  12.5492  12.5318  12.5147  12.8075  12.8005  12.7918
 PRANDTL NUMBER    0.7184   0.7179   0.7173   0.7167   0.7160   0.7191   0.7194   0.7197

 MOLE FRACTIONS

 *H               0.79357  0.80206  0.81029  0.81825  0.82595  0.67672  0.68786  0.69880
 *H2              0.20643  0.19794  0.18971  0.18175  0.17405  0.32328  0.31214  0.30120

  * THERMODYNAMIC PROPERTIES FITTED TO 20000.K

 NOTE. WEIGHT FRACTION OF FUEL IN TOTAL FUELS AND OF OXIDANT IN TOTAL OXIDANTS









               THERMODYNAMIC EQUILIBRIUM PROPERTIES AT ASSIGNED

                           TEMPERATURE AND PRESSURE

 CASE =                

             REACTANT                    WT FRACTION      ENERGY      TEMP
                                          (SEE NOTE)     KJ/KG-MOL      K  
             H2                           1.0000000         0.000      0.000

 O/F=    0.00000  %FUEL=100.000000  R,EQ.RATIO= 0.000000  PHI,EQ.RATIO= 0.000000

 THERMODYNAMIC PROPERTIES

 P, BAR           0.00670  0.00670  0.00670  0.00670  0.00670  0.00670  0.00670  0.00670
 T, K             2880.00  2890.00  2900.00  2910.00  2920.00  2930.00  2940.00  2950.00
 RHO, KG/CU M    3.6394-5 3.5972-5 3.5560-5 3.5156-5 3.4762-5 3.4378-5 3.4003-5 3.3637-5
 H, KJ/KG        167018.6 170115.5 173198.2 176262.6 179305.0 182321.3 185308.1 188261.7
 U, KJ/KG        148608.8 151489.9 154356.6 157204.9 160031.3 162832.1 165603.9 168343.3
 G, KJ/KG       -320031.1-321727.6-323434.8-325152.6-326880.9-328619.6-330368.5-332127.5
 S, KJ/(KG)(K)   169.1145 170.1879 171.2528 172.3076 173.3513 174.3826 175.4002 176.4031

 M, (1/n)           1.301    1.290    1.280    1.270    1.260    1.250    1.241    1.231
 (dLV/dLP)t      -1.12376 -1.12304 -1.12217 -1.12114 -1.11997 -1.11865 -1.11719 -1.11561
 (dLV/dLT)p        3.3724   3.3508   3.3263   3.2990   3.2692   3.2368   3.2021   3.1652
 Cp, KJ/(KG)(K)  310.2686 309.0447 307.4207 305.4024 302.9980 300.2179 297.0749 293.5838
 GAMMAs            1.1243   1.1250   1.1257   1.1264   1.1272   1.1280   1.1288   1.1297
 SON VEL,M/SEC     4549.5   4577.5   4605.4   4633.3   4661.0   4688.7   4716.2   4743.6

 TRANSPORT PROPERTIES (GASES ONLY)
   CONDUCTIVITY IN UNITS OF MILLIWATTS/(CM)(K)

 VISC,MILLIPOISE  0.47050  0.46931  0.46804  0.46670  0.46529  0.46382  0.46231  0.46075

  WITH EQUILIBRIUM REACTIONS

 Cp, KJ/(KG)(K)  310.2686 309.0446 307.4207 305.4024 302.9980 300.2179 297.0749 293.5838
 CONDUCTIVITY    245.3096 243.0846 240.5812 237.8101 234.7836 231.5148 228.0183 224.3097
 PRANDTL NUMBER    0.5951   0.5967   0.5981   0.5993   0.6005   0.6015   0.6023   0.6030

  WITH FROZEN REACTIONS

 Cp, KJ/(KG)(K)   19.5569  19.5922  19.6270  19.6613  19.6950  19.7282  19.7608  19.7927
 CONDUCTIVITY     12.7816  12.7700  12.7572  12.7434  12.7286  12.7130  12.6968  12.6801
 PRANDTL NUMBER    0.7199   0.7200   0.7201   0.7200   0.7199   0.7198   0.7195   0.7192

 MOLE FRACTIONS

 *H               0.70954  0.72006  0.73036  0.74043  0.75026  0.75985  0.76919  0.77828
 *H2              0.29046  0.27994  0.26964  0.25957  0.24974  0.24015  0.23081  0.22172

  * THERMODYNAMIC PROPERTIES FITTED TO 20000.K

 NOTE. WEIGHT FRACTION OF FUEL IN TOTAL FUELS AND OF OXIDANT IN TOTAL OXIDANTS









               THERMODYNAMIC EQUILIBRIUM PROPERTIES AT ASSIGNED

                           TEMPERATURE AND PRESSURE

 CASE =                

             REACTANT                    WT FRACTION      ENERGY      TEMP
                                          (SEE NOTE)     KJ/KG-MOL      K  
             H2                           1.0000000         0.000      0.000

 O/F=    0.00000  %FUEL=100.000000  R,EQ.RATIO= 0.000000  PHI,EQ.RATIO= 0.000000

 THERMODYNAMIC PROPERTIES

 P, BAR           0.00670  0.00670  0.00670  0.00670  0.00740  0.00740  0.00740  0.00740
 T, K             2960.00  2970.00  2980.00  2990.00  2850.00  2860.00  2870.00  2880.00
 RHO, KG/CU M    3.3281-5 3.2934-5 3.2597-5 3.2269-5 4.2173-5 4.1671-5 4.1178-5 4.0695-5
 H, KJ/KG        191178.7 194055.9 196890.2 199678.9 153436.1 156518.7 159604.9 162690.7
 U, KJ/KG        171047.1 173712.3 176336.0 178915.7 135889.2 138760.5 141634.3 144506.7
 G, KJ/KG       -333896.5-335675.3-337463.7-339261.5-313251.9-314894.7-316548.4-318212.9
 S, KJ/(KG)(K)   177.3903 178.3607 179.3134 180.2476 163.7502 164.8299 165.9071 166.9804

 M, (1/n)           1.223    1.214    1.205    1.197    1.350    1.339    1.328    1.317
 (dLV/dLP)t      -1.11390 -1.11208 -1.11016 -1.10814 -1.12497 -1.12499 -1.12484 -1.12452
 (dLV/dLT)p        3.1262   3.0854   3.0429   2.9989   3.4202   3.4122   3.4012   3.3871
 Cp, KJ/(KG)(K)  289.7614 285.6265 281.1990 276.5004 307.9587 308.5039 308.6649 308.4369
 GAMMAs            1.1306   1.1315   1.1324   1.1334   1.1222   1.1228   1.1234   1.1240
 SON VEL,M/SEC     4770.8   4797.8   4824.6   4851.2   4437.5   4465.2   4493.1   4520.9

 TRANSPORT PROPERTIES (GASES ONLY)
   CONDUCTIVITY IN UNITS OF MILLIWATTS/(CM)(K)

 VISC,MILLIPOISE  0.45915  0.45752  0.45587  0.45421  0.47673  0.47597  0.47510  0.47415

  WITH EQUILIBRIUM REACTIONS

 Cp, KJ/(KG)(K)  289.7614 285.6265 281.1990 276.5004 307.9587 308.5039 308.6649 308.4369
 CONDUCTIVITY    220.4051 216.3216 212.0768 207.6885 250.3697 249.4861 248.3030 246.8241
 PRANDTL NUMBER    0.6036   0.6041   0.6045   0.6047   0.5864   0.5886   0.5906   0.5925

  WITH FROZEN REACTIONS

 Cp, KJ/(KG)(K)   19.8240  19.8546  19.8845  19.9137  19.4038  19.4401  19.4762  19.5119
 CONDUCTIVITY     12.6631  12.6459  12.6285  12.6113  12.8739  12.8697  12.8636  12.8559
 PRANDTL NUMBER    0.7188   0.7183   0.7178   0.7172   0.7185   0.7190   0.7193   0.7196

 MOLE FRACTIONS

 *H               0.78712  0.79571  0.80404  0.81211  0.66018  0.67148  0.68259  0.69352
 *H2              0.21288  0.20429  0.19596  0.18789  0.33982  0.32852  0.31741  0.30648

  * THERMODYNAMIC PROPERTIES FITTED TO 20000.K

 NOTE. WEIGHT FRACTION OF FUEL IN TOTAL FUELS AND OF OXIDANT IN TOTAL OXIDANTS









               THERMODYNAMIC EQUILIBRIUM PROPERTIES AT ASSIGNED

                           TEMPERATURE AND PRESSURE

 CASE =                

             REACTANT                    WT FRACTION      ENERGY      TEMP
                                          (SEE NOTE)     KJ/KG-MOL      K  
             H2                           1.0000000         0.000      0.000

 O/F=    0.00000  %FUEL=100.000000  R,EQ.RATIO= 0.000000  PHI,EQ.RATIO= 0.000000

 THERMODYNAMIC PROPERTIES

 P, BAR           0.00740  0.00740  0.00740  0.00740  0.00740  0.00740  0.00740  0.00740
 T, K             2890.00  2900.00  2910.00  2920.00  2930.00  2940.00  2950.00  2960.00
 RHO, KG/CU M    4.0221-5 3.9757-5 3.9303-5 3.8858-5 3.8424-5 3.8000-5 3.7585-5 3.7182-5
 H, KJ/KG        165772.3 168845.8 171907.1 174952.6 177978.2 180980.4 183955.4 186899.7
 U, KJ/KG        147374.1 150232.7 153078.9 155909.0 158719.4 161506.5 164267.0 166997.4
 G, KJ/KG       -319888.0-321573.8-323270.2-324977.1-326694.3-328421.9-330159.6-331907.4
 S, KJ/(KG)(K)   168.0486 169.1102 170.1640 171.2088 172.2432 173.2661 174.2763 175.2727

 M, (1/n)           1.306    1.295    1.285    1.275    1.265    1.255    1.246    1.237
 (dLV/dLP)t      -1.12405 -1.12342 -1.12264 -1.12170 -1.12062 -1.11939 -1.11802 -1.11652
 (dLV/dLT)p        3.3701   3.3502   3.3274   3.3020   3.2739   3.2433   3.2103   3.1751
 Cp, KJ/(KG)(K)  307.8173 306.8060 305.4048 303.6182 301.4530 298.9180 296.0244 292.7855
 GAMMAs            1.1247   1.1253   1.1260   1.1268   1.1275   1.1283   1.1291   1.1299
 SON VEL,M/SEC     4548.8   4576.7   4604.5   4632.2   4659.9   4687.4   4714.9   4742.2

 TRANSPORT PROPERTIES (GASES ONLY)
   CONDUCTIVITY IN UNITS OF MILLIWATTS/(CM)(K)

 VISC,MILLIPOISE  0.47310  0.47196  0.47075  0.46946  0.46810  0.46668  0.46521  0.46369

  WITH EQUILIBRIUM REACTIONS

 Cp, KJ/(KG)(K)  307.8173 306.8060 305.4048 303.6182 301.4530 298.9180 296.0244 292.7855
 CONDUCTIVITY    245.0544 243.0008 240.6714 238.0760 235.2254 232.1320 228.8093 225.2717
 PRANDTL NUMBER    0.5943   0.5959   0.5974   0.5987   0.5999   0.6009   0.6019   0.6027

  WITH FROZEN REACTIONS

 Cp, KJ/(KG)(K)   19.5472  19.5822  19.6167  19.6507  19.6842  19.7172  19.7495  19.7813
 CONDUCTIVITY     12.8466  12.8358  12.8238  12.8107  12.7965  12.7815  12.7659  12.7496
 PRANDTL NUMBER    0.7199   0.7200   0.7201   0.7201   0.7201   0.7199   0.7197   0.7194

 MOLE FRACTIONS

 *H               0.70424  0.71477  0.72507  0.73516  0.74501  0.75463  0.76402  0.77316
 *H2              0.29576  0.28523  0.27493  0.26484  0.25499  0.24537  0.23598  0.22684

  * THERMODYNAMIC PROPERTIES FITTED TO 20000.K

 NOTE. WEIGHT FRACTION OF FUEL IN TOTAL FUELS AND OF OXIDANT IN TOTAL OXIDANTS









               THERMODYNAMIC EQUILIBRIUM PROPERTIES AT ASSIGNED

                           TEMPERATURE AND PRESSURE

 CASE =                

             REACTANT                    WT FRACTION      ENERGY      TEMP
                                          (SEE NOTE)     KJ/KG-MOL      K  
             H2                           1.0000000         0.000      0.000

 O/F=    0.00000  %FUEL=100.000000  R,EQ.RATIO= 0.000000  PHI,EQ.RATIO= 0.000000

 THERMODYNAMIC PROPERTIES

 P, BAR           0.00740  0.00740  0.00740  0.00825  0.00825  0.00825  0.00825  0.00825
 T, K             2970.00  2980.00  2990.00  2850.00  2860.00  2870.00  2880.00  2890.00
 RHO, KG/CU M    3.6788-5 3.6404-5 3.6031-5 4.7659-5 4.7093-5 4.6536-5 4.5989-5 4.5452-5
 H, KJ/KG        189810.0 192683.0 195515.7 148854.9 151893.0 154940.4 157993.5 161048.5
 U, KJ/KG        169694.7 172355.7 174977.7 131544.6 134374.5 137212.3 140054.5 142897.5
 G, KJ/KG       -333665.0-335432.4-337209.4-311356.8-312976.9-314607.6-316249.0-317901.0
 S, KJ/(KG)(K)   176.2542 177.2199 178.1689 161.4778 162.5419 163.6056 164.6675 165.7264

 M, (1/n)           1.228    1.219    1.210    1.369    1.357    1.346    1.335    1.324
 (dLV/dLP)t      -1.11490 -1.11317 -1.11132 -1.12463 -1.12489 -1.12500 -1.12495 -1.12474
 (dLV/dLT)p        3.1379   3.0987   3.0578   3.4134   3.4103   3.4043   3.3952   3.3832
 Cp, KJ/(KG)(K)  289.2164 285.3340 281.1570 303.2261 304.3347 305.0830 305.4632 305.4699
 GAMMAs            1.1308   1.1317   1.1326   1.1220   1.1226   1.1231   1.1237   1.1244
 SON VEL,M/SEC     4769.3   4796.3   4823.1   4407.1   4434.6   4462.2   4489.9   4517.5

 TRANSPORT PROPERTIES (GASES ONLY)
   CONDUCTIVITY IN UNITS OF MILLIWATTS/(CM)(K)

 VISC,MILLIPOISE  0.46213  0.46054  0.45892  0.47994  0.47936  0.47868  0.47789  0.47701

  WITH EQUILIBRIUM REACTIONS

 Cp, KJ/(KG)(K)  289.2164 285.3340 281.1570 303.2261 304.3347 305.0830 305.4632 305.4698
 CONDUCTIVITY    221.5344 217.6136 213.5259 249.7754 249.3756 248.6823 247.6966 246.4211
 PRANDTL NUMBER    0.6033   0.6039   0.6043   0.5826   0.5850   0.5872   0.5893   0.5913

  WITH FROZEN REACTIONS

 Cp, KJ/(KG)(K)   19.8125  19.8429  19.8728  19.3555  19.3916  19.4274  19.4631  19.4984
 CONDUCTIVITY     12.7330  12.7160  12.6989  12.9420  12.9411  12.9382  12.9335  12.9269
 PRANDTL NUMBER    0.7191   0.7187   0.7182   0.7178   0.7183   0.7188   0.7192   0.7195

 MOLE FRACTIONS

 *H               0.78205  0.79069  0.79908  0.64187  0.65330  0.66457  0.67567  0.68659
 *H2              0.21795  0.20931  0.20092  0.35813  0.34670  0.33543  0.32433  0.31341

  * THERMODYNAMIC PROPERTIES FITTED TO 20000.K

 NOTE. WEIGHT FRACTION OF FUEL IN TOTAL FUELS AND OF OXIDANT IN TOTAL OXIDANTS









               THERMODYNAMIC EQUILIBRIUM PROPERTIES AT ASSIGNED

                           TEMPERATURE AND PRESSURE

 CASE =                

             REACTANT                    WT FRACTION      ENERGY      TEMP
                                          (SEE NOTE)     KJ/KG-MOL      K  
             H2                           1.0000000         0.000      0.000

 O/F=    0.00000  %FUEL=100.000000  R,EQ.RATIO= 0.000000  PHI,EQ.RATIO= 0.000000

 THERMODYNAMIC PROPERTIES

 P, BAR           0.00825  0.00825  0.00825  0.00825  0.00825  0.00825  0.00825  0.00825
 T, K             2900.00  2910.00  2920.00  2930.00  2940.00  2950.00  2960.00  2970.00
 RHO, KG/CU M    4.4925-5 4.4408-5 4.3902-5 4.3407-5 4.2923-5 4.2449-5 4.1987-5 4.1535-5
 H, KJ/KG        164101.6 167149.2 170187.3 173212.3 176220.5 179208.0 182171.4 185107.1
 U, KJ/KG        145737.7 148571.6 151395.7 154206.3 156999.9 159773.1 162522.4 165244.6
 G, KJ/KG       -319563.5-321236.6-322920.1-324614.0-326318.2-328032.6-329757.1-331491.5
 S, KJ/(KG)(K)   166.7811 167.8302 168.8724 169.9066 170.9315 171.9460 172.9488 173.9389

 M, (1/n)           1.313    1.302    1.292    1.282    1.272    1.262    1.253    1.243
 (dLV/dLP)t      -1.12438 -1.12386 -1.12318 -1.12236 -1.12138 -1.12027 -1.11901 -1.11762
 (dLV/dLT)p        3.3683   3.3505   3.3300   3.3067   3.2808   3.2524   3.2215   3.1885
 Cp, KJ/(KG)(K)  305.0991 304.3494 303.2213 301.7177 299.8435 297.6060 295.0143 292.0798
 GAMMAs            1.1250   1.1256   1.1263   1.1270   1.1278   1.1285   1.1293   1.1301
 SON VEL,M/SEC     4545.2   4572.9   4600.6   4628.2   4655.8   4683.3   4710.6   4737.9

 TRANSPORT PROPERTIES (GASES ONLY)
   CONDUCTIVITY IN UNITS OF MILLIWATTS/(CM)(K)

 VISC,MILLIPOISE  0.47603  0.47497  0.47382  0.47260  0.47131  0.46995  0.46853  0.46706

  WITH EQUILIBRIUM REACTIONS

 Cp, KJ/(KG)(K)  305.0991 304.3494 303.2213 301.7177 299.8435 297.6059 295.0142 292.0798
 CONDUCTIVITY    244.8598 243.0182 240.9034 238.5237 235.8890 233.0103 229.8997 226.5705
 PRANDTL NUMBER    0.5931   0.5948   0.5964   0.5978   0.5991   0.6002   0.6012   0.6021

  WITH FROZEN REACTIONS

 Cp, KJ/(KG)(K)   19.5334  19.5680  19.6021  19.6359  19.6692  19.7019  19.7341  19.7658
 CONDUCTIVITY     12.9188  12.9091  12.8981  12.8859  12.8726  12.8584  12.8434  12.8278
 PRANDTL NUMBER    0.7198   0.7200   0.7201   0.7202   0.7201   0.7201   0.7199   0.7197

 MOLE FRACTIONS

 *H               0.69733  0.70787  0.71820  0.72832  0.73822  0.74790  0.75734  0.76655
 *H2              0.30267  0.29213  0.28180  0.27168  0.26178  0.25210  0.24266  0.23345

  * THERMODYNAMIC PROPERTIES FITTED TO 20000.K

 NOTE. WEIGHT FRACTION OF FUEL IN TOTAL FUELS AND OF OXIDANT IN TOTAL OXIDANTS









               THERMODYNAMIC EQUILIBRIUM PROPERTIES AT ASSIGNED

                           TEMPERATURE AND PRESSURE

 CASE =                

             REACTANT                    WT FRACTION      ENERGY      TEMP
                                          (SEE NOTE)     KJ/KG-MOL      K  
             H2                           1.0000000         0.000      0.000

 O/F=    0.00000  %FUEL=100.000000  R,EQ.RATIO= 0.000000  PHI,EQ.RATIO= 0.000000

 THERMODYNAMIC PROPERTIES

 P, BAR           0.00825  0.00825  0.00910  0.00910  0.00910  0.00910  0.00910  0.00910
 T, K             2980.00  2990.00  2850.00  2860.00  2870.00  2880.00  2890.00  2900.00
 RHO, KG/CU M    4.1095-5 4.0666-5 5.3214-5 5.2584-5 5.1964-5 5.1353-5 5.0753-5 5.0163-5
 H, KJ/KG        188011.9 190882.4 144792.8 147783.8 150788.8 153804.5 156827.2 159853.5
 U, KJ/KG        167936.5 170595.0 127692.2 130478.2 133276.6 136084.0 138897.1 141712.7
 G, KJ/KG       -333235.8-334989.8-309669.7-311269.5-312879.8-314500.6-316131.9-317773.7
 S, KJ/(KG)(K)   174.9153 175.8770 159.4605 160.5081 161.5570 162.6059 163.6537 164.6990

 M, (1/n)           1.234    1.225    1.386    1.374    1.363    1.351    1.340    1.329
 (dLV/dLP)t      -1.11611 -1.11448 -1.12398 -1.12446 -1.12479 -1.12497 -1.12499 -1.12486
 (dLV/dLT)p        3.1533   3.1161   3.4009   3.4020   3.4002   3.3956   3.3880   3.3775
 Cp, KJ/(KG)(K)  288.8157 285.2372 298.2856 299.8556 301.0894 301.9774 302.5114 302.6852
 GAMMAs            1.1310   1.1319   1.1219   1.1224   1.1230   1.1235   1.1241   1.1247
 SON VEL,M/SEC     4765.0   4791.9   4380.1   4407.3   4434.6   4462.0   4489.5   4517.0

 TRANSPORT PROPERTIES (GASES ONLY)
   CONDUCTIVITY IN UNITS OF MILLIWATTS/(CM)(K)

 VISC,MILLIPOISE  0.46555  0.46400  0.48258  0.48218  0.48166  0.48104  0.48032  0.47949

  WITH EQUILIBRIUM REACTIONS

 Cp, KJ/(KG)(K)  288.8157 285.2372 298.2856 299.8556 301.0894 301.9774 302.5114 302.6852
 CONDUCTIVITY    223.0368 219.3136 248.6012 248.6186 248.3510 247.7974 246.9581 245.8350
 PRANDTL NUMBER    0.6029   0.6035   0.5790   0.5815   0.5839   0.5862   0.5884   0.5904

  WITH FROZEN REACTIONS

 Cp, KJ/(KG)(K)   19.7968  19.8272  19.3126  19.3484  19.3841  19.4195  19.4547  19.4896
 CONDUCTIVITY     12.8116  12.7951  12.9989  13.0013  13.0015  12.9996  12.9959  12.9903
 PRANDTL NUMBER    0.7194   0.7190   0.7170   0.7176   0.7181   0.7186   0.7190   0.7194

 MOLE FRACTIONS

 *H               0.77552  0.78424  0.62521  0.63673  0.64811  0.65934  0.67041  0.68131
 *H2              0.22448  0.21576  0.37479  0.36327  0.35189  0.34066  0.32959  0.31869

  * THERMODYNAMIC PROPERTIES FITTED TO 20000.K

 NOTE. WEIGHT FRACTION OF FUEL IN TOTAL FUELS AND OF OXIDANT IN TOTAL OXIDANTS









               THERMODYNAMIC EQUILIBRIUM PROPERTIES AT ASSIGNED

                           TEMPERATURE AND PRESSURE

 CASE =                

             REACTANT                    WT FRACTION      ENERGY      TEMP
                                          (SEE NOTE)     KJ/KG-MOL      K  
             H2                           1.0000000         0.000      0.000

 O/F=    0.00000  %FUEL=100.000000  R,EQ.RATIO= 0.000000  PHI,EQ.RATIO= 0.000000

 THERMODYNAMIC PROPERTIES

 P, BAR           0.00910  0.00910  0.00910  0.00910  0.00910  0.00910  0.00910  0.00910
 T, K             2910.00  2920.00  2930.00  2940.00  2950.00  2960.00  2970.00  2980.00
 RHO, KG/CU M    4.9584-5 4.9017-5 4.8460-5 4.7916-5 4.7382-5 4.6861-5 4.6351-5 4.5853-5
 H, KJ/KG        162879.7 165902.2 168917.2 171921.2 174910.4 177881.3 180830.4 183754.1
 U, KJ/KG        144527.1 147337.1 150139.0 152929.4 155704.9 158462.1 161197.6 163908.3
 G, KJ/KG       -319425.9-321088.5-322761.4-324444.6-326138.0-327841.5-329555.0-331278.4
 S, KJ/(KG)(K)   165.7407 166.7776 167.8084 168.8319 169.8469 170.8523 171.8469 172.8297

 M, (1/n)           1.318    1.308    1.297    1.287    1.277    1.267    1.258    1.248
 (dLV/dLP)t      -1.12458 -1.12414 -1.12355 -1.12281 -1.12192 -1.12089 -1.11973 -1.11843
 (dLV/dLT)p        3.3642   3.3481   3.3292   3.3076   3.2834   3.2567   3.2276   3.1962
 Cp, KJ/(KG)(K)  302.4944 301.9364 301.0109 299.7196 298.0662 296.0567 293.6987 291.0023
 GAMMAs            1.1254   1.1260   1.1267   1.1274   1.1281   1.1288   1.1296   1.1304
 SON VEL,M/SEC     4544.6   4572.1   4599.7   4627.2   4654.6   4682.0   4709.3   4736.5

 TRANSPORT PROPERTIES (GASES ONLY)
   CONDUCTIVITY IN UNITS OF MILLIWATTS/(CM)(K)

 VISC,MILLIPOISE  0.47858  0.47757  0.47648  0.47531  0.47407  0.47276  0.47139  0.46997

  WITH EQUILIBRIUM REACTIONS

 Cp, KJ/(KG)(K)  302.4944 301.9364 301.0109 299.7196 298.0662 296.0566 293.6987 291.0023
 CONDUCTIVITY    244.4314 242.7519 240.8027 238.5911 236.1261 233.4176 230.4768 227.3161
 PRANDTL NUMBER    0.5923   0.5940   0.5956   0.5971   0.5984   0.5996   0.6007   0.6016

  WITH FROZEN REACTIONS

 Cp, KJ/(KG)(K)   19.5242  19.5585  19.5924  19.6258  19.6588  19.6913  19.7233  19.7547
 CONDUCTIVITY     12.9831  12.9743  12.9642  12.9527  12.9402  12.9266  12.9122  12.8971
 PRANDTL NUMBER    0.7197   0.7199   0.7201   0.7202   0.7202   0.7202   0.7200   0.7199

 MOLE FRACTIONS

 *H               0.69203  0.70256  0.71289  0.72302  0.73294  0.74263  0.75211  0.76135
 *H2              0.30797  0.29744  0.28711  0.27698  0.26706  0.25737  0.24789  0.23865

  * THERMODYNAMIC PROPERTIES FITTED TO 20000.K

 NOTE. WEIGHT FRACTION OF FUEL IN TOTAL FUELS AND OF OXIDANT IN TOTAL OXIDANTS









               THERMODYNAMIC EQUILIBRIUM PROPERTIES AT ASSIGNED

                           TEMPERATURE AND PRESSURE

 CASE =                

             REACTANT                    WT FRACTION      ENERGY      TEMP
                                          (SEE NOTE)     KJ/KG-MOL      K  
             H2                           1.0000000         0.000      0.000

 O/F=    0.00000  %FUEL=100.000000  R,EQ.RATIO= 0.000000  PHI,EQ.RATIO= 0.000000

 THERMODYNAMIC PROPERTIES

 P, BAR           0.00910  0.01000  0.01000  0.01000  0.01000  0.01000  0.01000  0.01000
 T, K             2990.00  2850.00  2860.00  2870.00  2880.00  2890.00  2900.00  2910.00
 RHO, KG/CU M    4.5368-5 5.9163-5 5.8465-5 5.7778-5 5.7100-5 5.6434-5 5.5778-5 5.5133-5
 H, KJ/KG        186649.3 140956.6 143896.7 146855.0 149828.3 152813.3 155806.6 158804.8
 U, KJ/KG        166590.9 124054.1 126792.6 129547.3 132315.2 135093.3 137878.3 140667.0
 G, KJ/KG       -333011.6-308066.3-309646.9-311237.9-312839.2-314450.8-316072.9-317705.2
 S, KJ/(KG)(K)   173.7996 157.5519 158.5817 159.6143 160.6484 161.6831 162.7171 163.7491

 M, (1/n)           1.239    1.402    1.390    1.379    1.367    1.356    1.345    1.334
 (dLV/dLP)t      -1.11700 -1.12307 -1.12375 -1.12428 -1.12467 -1.12491 -1.12500 -1.12494
 (dLV/dLT)p        3.1627   3.3834   3.3883   3.3905   3.3899   3.3865   3.3802   3.3711
 Cp, KJ/(KG)(K)  287.9793 293.0024 294.9727 296.6317 297.9681 298.9721 299.6352 299.9508
 GAMMAs            1.1312   1.1219   1.1224   1.1229   1.1234   1.1240   1.1245   1.1251
 SON VEL,M/SEC     4763.5   4354.6   4381.4   4408.4   4435.6   4462.8   4490.1   4517.4

 TRANSPORT PROPERTIES (GASES ONLY)
   CONDUCTIVITY IN UNITS OF MILLIWATTS/(CM)(K)

 VISC,MILLIPOISE  0.46850  0.48491  0.48466  0.48431  0.48385  0.48329  0.48262  0.48185

  WITH EQUILIBRIUM REACTIONS

 Cp, KJ/(KG)(K)  287.9793 293.0024 294.9727 296.6317 297.9681 298.9721 299.6352 299.9508
 CONDUCTIVITY    223.9485 246.9335 247.3318 247.4555 247.3019 246.8695 246.1581 245.1689
 PRANDTL NUMBER    0.6024   0.5754   0.5780   0.5806   0.5830   0.5853   0.5875   0.5895

  WITH FROZEN REACTIONS

 Cp, KJ/(KG)(K)   19.7856  19.2721  19.3076  19.3430  19.3782  19.4132  19.4480  19.4825
 CONDUCTIVITY     12.8814  13.0495  13.0551  13.0584  13.0596  13.0587  13.0559  13.0512
 PRANDTL NUMBER    0.7196   0.7161   0.7168   0.7174   0.7180   0.7185   0.7189   0.7193

 MOLE FRACTIONS

 *H               0.77036  0.60910  0.62068  0.63213  0.64346  0.65464  0.66568  0.67654
 *H2              0.22964  0.39090  0.37932  0.36787  0.35654  0.34536  0.33432  0.32346

  * THERMODYNAMIC PROPERTIES FITTED TO 20000.K

 NOTE. WEIGHT FRACTION OF FUEL IN TOTAL FUELS AND OF OXIDANT IN TOTAL OXIDANTS









               THERMODYNAMIC EQUILIBRIUM PROPERTIES AT ASSIGNED

                           TEMPERATURE AND PRESSURE

 CASE =                

             REACTANT                    WT FRACTION      ENERGY      TEMP
                                          (SEE NOTE)     KJ/KG-MOL      K  
             H2                           1.0000000         0.000      0.000

 O/F=    0.00000  %FUEL=100.000000  R,EQ.RATIO= 0.000000  PHI,EQ.RATIO= 0.000000

 THERMODYNAMIC PROPERTIES

 P, BAR           0.01000  0.01000  0.01000  0.01000  0.01000  0.01000  0.01000  0.01000
 T, K             2920.00  2930.00  2940.00  2950.00  2960.00  2970.00  2980.00  2990.00
 RHO, KG/CU M    5.4501-5 5.3879-5 5.3271-5 5.2674-5 5.2090-5 5.1518-5 5.0959-5 5.0413-5
 H, KJ/KG        161804.4 164801.9 167793.7 170776.2 173745.8 176699.1 179632.7 182543.0
 U, KJ/KG        143456.0 146242.0 149021.6 151791.4 154548.2 157288.5 160009.1 162706.8
 G, KJ/KG       -319347.8-321000.7-322663.9-324337.2-326020.5-327713.9-329417.2-331130.3
 S, KJ/(KG)(K)   164.7782 165.8030 166.8223 167.8350 168.8400 169.8361 170.8221 171.7971

 M, (1/n)           1.323    1.313    1.302    1.292    1.282    1.272    1.263    1.253
 (dLV/dLP)t      -1.12472 -1.12436 -1.12384 -1.12318 -1.12237 -1.12142 -1.12034 -1.11912
 (dLV/dLT)p        3.3591   3.3444   3.3270   3.3070   3.2843   3.2592   3.2317   3.2019
 Cp, KJ/(KG)(K)  299.9139 299.5212 298.7717 297.6660 296.2069 294.3991 292.2494 289.7662
 GAMMAs            1.1257   1.1264   1.1270   1.1277   1.1284   1.1292   1.1299   1.1307
 SON VEL,M/SEC     4544.8   4572.2   4599.7   4627.0   4654.4   4681.6   4708.8   4735.9

 TRANSPORT PROPERTIES (GASES ONLY)
   CONDUCTIVITY IN UNITS OF MILLIWATTS/(CM)(K)

 VISC,MILLIPOISE  0.48099  0.48003  0.47899  0.47788  0.47668  0.47542  0.47410  0.47272

  WITH EQUILIBRIUM REACTIONS

 Cp, KJ/(KG)(K)  299.9139 299.5212 298.7717 297.6660 296.2069 294.3991 292.2493 289.7662
 CONDUCTIVITY    243.9046 242.3690 240.5676 238.5070 236.1950 233.6409 230.8550 227.8486
 PRANDTL NUMBER    0.5914   0.5932   0.5949   0.5964   0.5978   0.5991   0.6002   0.6012

  WITH FROZEN REACTIONS

 Cp, KJ/(KG)(K)   19.5168  19.5506  19.5842  19.6173  19.6500  19.6823  19.7140  19.7452
 CONDUCTIVITY     13.0449  13.0369  13.0276  13.0169  13.0050  12.9921  12.9782  12.9636
 PRANDTL NUMBER    0.7196   0.7199   0.7201   0.7202   0.7202   0.7202   0.7202   0.7200

 MOLE FRACTIONS

 *H               0.68724  0.69775  0.70808  0.71820  0.72812  0.73783  0.74732  0.75659
 *H2              0.31276  0.30225  0.29192  0.28180  0.27188  0.26217  0.25268  0.24341

  * THERMODYNAMIC PROPERTIES FITTED TO 20000.K

 NOTE. WEIGHT FRACTION OF FUEL IN TOTAL FUELS AND OF OXIDANT IN TOTAL OXIDANTS









               THERMODYNAMIC EQUILIBRIUM PROPERTIES AT ASSIGNED

                           TEMPERATURE AND PRESSURE

 CASE =                

             REACTANT                    WT FRACTION      ENERGY      TEMP
                                          (SEE NOTE)     KJ/KG-MOL      K  
             H2                           1.0000000         0.000      0.000

 O/F=    0.00000  %FUEL=100.000000  R,EQ.RATIO= 0.000000  PHI,EQ.RATIO= 0.000000

 THERMODYNAMIC PROPERTIES

 P, BAR           0.01100  0.01100  0.01100  0.01100  0.01100  0.01100  0.01100  0.01100
 T, K             2850.00  2860.00  2870.00  2880.00  2890.00  2900.00  2910.00  2920.00
 RHO, KG/CU M    6.5843-5 6.5072-5 6.4310-5 6.3559-5 6.2819-5 6.2091-5 6.1373-5 6.0668-5
 H, KJ/KG        137157.0 140040.9 142946.6 145871.4 148812.1 151765.6 154728.7 157698.1
 U, KJ/KG        120450.7 123136.5 125842.1 128564.8 131301.6 134049.6 136805.7 139566.7
 G, KJ/KG       -306464.7-308026.3-309598.0-311179.9-312772.0-314374.2-315986.7-317609.4
 S, KJ/(KG)(K)   155.6567 156.6668 157.6811 158.6984 159.7177 160.7379 161.7579 162.7765

 M, (1/n)           1.418    1.407    1.395    1.384    1.372    1.361    1.350    1.339
 (dLV/dLP)t      -1.12190 -1.12276 -1.12349 -1.12407 -1.12452 -1.12482 -1.12498 -1.12498
 (dLV/dLT)p        3.3606   3.3692   3.3752   3.3785   3.3790   3.3768   3.3718   3.3641
 Cp, KJ/(KG)(K)  287.2006 289.5315 291.5773 293.3254 294.7645 295.8846 296.6771 297.1348
 GAMMAs            1.1218   1.1223   1.1228   1.1233   1.1238   1.1244   1.1249   1.1255
 SON VEL,M/SEC     4329.2   4355.7   4382.3   4409.1   4436.1   4463.1   4490.2   4517.4

 TRANSPORT PROPERTIES (GASES ONLY)
   CONDUCTIVITY IN UNITS OF MILLIWATTS/(CM)(K)

 VISC,MILLIPOISE  0.48702  0.48695  0.48676  0.48647  0.48607  0.48556  0.48494  0.48423

  WITH EQUILIBRIUM REACTIONS

 Cp, KJ/(KG)(K)  287.2006 289.5315 291.5773 293.3254 294.7645 295.8846 296.6771 297.1348
 CONDUCTIVITY    244.7463 245.5068 246.0051 246.2371 246.1995 245.8904 245.3091 244.4563
 PRANDTL NUMBER    0.5715   0.5743   0.5769   0.5795   0.5819   0.5843   0.5865   0.5886

  WITH FROZEN REACTIONS

 Cp, KJ/(KG)(K)   19.2320  19.2671  19.3021  19.3370  19.3718  19.4064  19.4408  19.4749
 CONDUCTIVITY     13.0963  13.1053  13.1119  13.1162  13.1184  13.1185  13.1167  13.1130
 PRANDTL NUMBER    0.7152   0.7159   0.7166   0.7172   0.7178   0.7183   0.7188   0.7192

 MOLE FRACTIONS

 *H               0.59277  0.60438  0.61588  0.62728  0.63855  0.64969  0.66068  0.67152
 *H2              0.40723  0.39562  0.38412  0.37272  0.36145  0.35031  0.33932  0.32848

  * THERMODYNAMIC PROPERTIES FITTED TO 20000.K

 NOTE. WEIGHT FRACTION OF FUEL IN TOTAL FUELS AND OF OXIDANT IN TOTAL OXIDANTS









               THERMODYNAMIC EQUILIBRIUM PROPERTIES AT ASSIGNED

                           TEMPERATURE AND PRESSURE

 CASE =                

             REACTANT                    WT FRACTION      ENERGY      TEMP
                                          (SEE NOTE)     KJ/KG-MOL      K  
             H2                           1.0000000         0.000      0.000

 O/F=    0.00000  %FUEL=100.000000  R,EQ.RATIO= 0.000000  PHI,EQ.RATIO= 0.000000

 THERMODYNAMIC PROPERTIES

 P, BAR           0.01100  0.01100  0.01100  0.01100  0.01100  0.01100  0.01100  0.01200
 T, K             2930.00  2940.00  2950.00  2960.00  2970.00  2980.00  2990.00  2850.00
 RHO, KG/CU M    5.9976-5 5.9296-5 5.8628-5 5.7974-5 5.7333-5 5.6706-5 5.6092-5 7.2591-5
 H, KJ/KG        160670.3 163642.0 166609.6 169569.9 172519.2 175454.1 178371.4 133761.1
 U, KJ/KG        142329.5 145090.8 147847.4 150595.9 153333.1 156055.8 158760.8 117230.2
 G, KJ/KG       -319242.2-320885.2-322538.3-324201.5-325874.6-327557.6-329250.5-305018.7
 S, KJ/(KG)(K)   163.7927 164.8052 165.8129 166.8146 167.8094 168.7959 169.7732 153.9578

 M, (1/n)           1.328    1.318    1.307    1.297    1.287    1.277    1.268    1.433
 (dLV/dLP)t      -1.12484 -1.12455 -1.12412 -1.12353 -1.12281 -1.12194 -1.12093 -1.12061
 (dLV/dLT)p        3.3536   3.3404   3.3245   3.3060   3.2849   3.2614   3.2355   3.3357
 Cp, KJ/(KG)(K)  297.2523 297.0256 296.4529 295.5340 294.2706 292.6664 290.7269 281.5538
 GAMMAs            1.1261   1.1267   1.1274   1.1281   1.1288   1.1295   1.1302   1.1218
 SON VEL,M/SEC     4544.6   4571.9   4599.2   4626.4   4653.7   4680.8   4707.9   4306.4

 TRANSPORT PROPERTIES (GASES ONLY)
   CONDUCTIVITY IN UNITS OF MILLIWATTS/(CM)(K)

 VISC,MILLIPOISE  0.48343  0.48253  0.48155  0.48048  0.47934  0.47813  0.47685  0.48876

  WITH EQUILIBRIUM REACTIONS

 Cp, KJ/(KG)(K)  297.2523 297.0256 296.4529 295.5340 294.2706 292.6664 290.7269 281.5538
 CONDUCTIVITY    243.3339 241.9452 240.2946 238.3881 236.2328 233.8368 231.2096 242.3404
 PRANDTL NUMBER    0.5905   0.5924   0.5941   0.5957   0.5971   0.5984   0.5996   0.5678

  WITH FROZEN REACTIONS

 Cp, KJ/(KG)(K)   19.5088  19.5423  19.5755  19.6083  19.6407  19.6727  19.7042  19.1962
 CONDUCTIVITY     13.1076  13.1005  13.0920  13.0821  13.0709  13.0587  13.0455  13.1350
 PRANDTL NUMBER    0.7195   0.7198   0.7200   0.7202   0.7203   0.7203   0.7202   0.7143

 MOLE FRACTIONS

 *H               0.68219  0.69269  0.70300  0.71313  0.72305  0.73277  0.74228  0.57784
 *H2              0.31781  0.30731  0.29700  0.28687  0.27695  0.26723  0.25772  0.42216

  * THERMODYNAMIC PROPERTIES FITTED TO 20000.K

 NOTE. WEIGHT FRACTION OF FUEL IN TOTAL FUELS AND OF OXIDANT IN TOTAL OXIDANTS









               THERMODYNAMIC EQUILIBRIUM PROPERTIES AT ASSIGNED

                           TEMPERATURE AND PRESSURE

 CASE =                

             REACTANT                    WT FRACTION      ENERGY      TEMP
                                          (SEE NOTE)     KJ/KG-MOL      K  
             H2                           1.0000000         0.000      0.000

 O/F=    0.00000  %FUEL=100.000000  R,EQ.RATIO= 0.000000  PHI,EQ.RATIO= 0.000000

 THERMODYNAMIC PROPERTIES

 P, BAR           0.01200  0.01200  0.01200  0.01200  0.01200  0.01200  0.01200  0.01200
 T, K             2860.00  2870.00  2880.00  2890.00  2900.00  2910.00  2920.00  2930.00
 RHO, KG/CU M    7.1746-5 7.0912-5 7.0088-5 6.9275-5 6.8474-5 6.7684-5 6.6907-5 6.6143-5
 H, KJ/KG        136590.0 139443.8 142319.8 145215.3 148127.3 151052.7 153988.6 156931.6
 U, KJ/KG        119864.4 122521.3 125198.4 127893.0 130602.3 133323.4 136053.4 138789.2
 G, KJ/KG       -306563.2-308117.6-309682.1-311256.6-312841.1-314435.7-316040.3-317655.0
 S, KJ/(KG)(K)   154.9487 155.9447 156.9451 157.9487 158.9546 159.9617 160.9688 161.9750

 M, (1/n)           1.422    1.410    1.399    1.387    1.376    1.365    1.354    1.343
 (dLV/dLP)t      -1.12163 -1.12252 -1.12328 -1.12391 -1.12439 -1.12474 -1.12494 -1.12500
 (dLV/dLT)p        3.3474   3.3566   3.3633   3.3673   3.3686   3.3673   3.3633   3.3565
 Cp, KJ/(KG)(K)  284.1758 286.5366 288.6231 290.4232 291.9256 293.1204 293.9986 294.5531
 GAMMAs            1.1223   1.1227   1.1232   1.1237   1.1242   1.1248   1.1253   1.1259
 SON VEL,M/SEC     4332.5   4358.9   4385.3   4412.0   4438.7   4465.6   4492.6   4519.6

 TRANSPORT PROPERTIES (GASES ONLY)
   CONDUCTIVITY IN UNITS OF MILLIWATTS/(CM)(K)

 VISC,MILLIPOISE  0.48883  0.48880  0.48866  0.48841  0.48805  0.48758  0.48701  0.48635

  WITH EQUILIBRIUM REACTIONS

 Cp, KJ/(KG)(K)  284.1758 286.5366 288.6231 290.4232 291.9256 293.1204 293.9986 294.5531
 CONDUCTIVITY    243.4100 244.2301 244.7953 245.1013 245.1445 244.9228 244.4352 243.6820
 PRANDTL NUMBER    0.5707   0.5735   0.5761   0.5787   0.5812   0.5835   0.5858   0.5879

  WITH FROZEN REACTIONS

 Cp, KJ/(KG)(K)   19.2309  19.2655  19.3001  19.3346  19.3690  19.4031  19.4371  19.4709
 CONDUCTIVITY     13.1472  13.1569  13.1643  13.1694  13.1723  13.1732  13.1721  13.1691
 PRANDTL NUMBER    0.7150   0.7157   0.7164   0.7171   0.7176   0.7182   0.7187   0.7191

 MOLE FRACTIONS

 *H               0.58946  0.60099  0.61243  0.62376  0.63497  0.64605  0.65700  0.66779
 *H2              0.41054  0.39901  0.38757  0.37624  0.36503  0.35395  0.34300  0.33221

  * THERMODYNAMIC PROPERTIES FITTED TO 20000.K

 NOTE. WEIGHT FRACTION OF FUEL IN TOTAL FUELS AND OF OXIDANT IN TOTAL OXIDANTS









               THERMODYNAMIC EQUILIBRIUM PROPERTIES AT ASSIGNED

                           TEMPERATURE AND PRESSURE

 CASE =                

             REACTANT                    WT FRACTION      ENERGY      TEMP
                                          (SEE NOTE)     KJ/KG-MOL      K  
             H2                           1.0000000         0.000      0.000

 O/F=    0.00000  %FUEL=100.000000  R,EQ.RATIO= 0.000000  PHI,EQ.RATIO= 0.000000

 THERMODYNAMIC PROPERTIES

 P, BAR           0.01200  0.01200  0.01200  0.01200  0.01200  0.01200  0.01320  0.01320
 T, K             2940.00  2950.00  2960.00  2970.00  2980.00  2990.00  2850.00  2860.00
 RHO, KG/CU M    6.5392-5 6.4654-5 6.3930-5 6.3220-5 6.2524-5 6.1843-5 8.0767-5 7.9836-5
 H, KJ/KG        159878.6 162826.1 165770.8 168709.5 171638.6 174554.8 130126.1 132891.2
 U, KJ/KG        141527.7 144265.9 147000.4 149728.2 152446.0 155150.7 113782.9 116357.3
 G, KJ/KG       -319279.8-320914.6-322559.4-324214.1-325878.7-327553.1-303452.1-304978.2
 S, KJ/(KG)(K)   162.9790 163.9799 164.9764 165.9675 166.9521 167.9291 152.1327 153.1012

 M, (1/n)           1.332    1.322    1.311    1.301    1.291    1.281    1.450    1.438
 (dLV/dLP)t      -1.12491 -1.12468 -1.12430 -1.12377 -1.12311 -1.12230 -1.11899 -1.12016
 (dLV/dLT)p        3.3471   3.3350   3.3202   3.3029   3.2831   3.2608   3.3042   3.3191
 Cp, KJ/(KG)(K)  294.7781 294.6693 294.2242 293.4422 292.3242 290.8732 275.0449 277.9444
 GAMMAs            1.1265   1.1271   1.1278   1.1284   1.1291   1.1298   1.1219   1.1223
 SON VEL,M/SEC     4546.7   4573.8   4601.0   4628.1   4655.2   4682.3   4282.0   4307.7

 TRANSPORT PROPERTIES (GASES ONLY)
   CONDUCTIVITY IN UNITS OF MILLIWATTS/(CM)(K)

 VISC,MILLIPOISE  0.48559  0.48473  0.48379  0.48277  0.48167  0.48050  0.49044  0.49068

  WITH EQUILIBRIUM REACTIONS

 Cp, KJ/(KG)(K)  294.7781 294.6693 294.2242 293.4422 292.3242 290.8732 275.0449 277.9444
 CONDUCTIVITY    242.6646 241.3857 239.8493 238.0608 236.0264 233.7538 239.2930 240.6762
 PRANDTL NUMBER    0.5899   0.5917   0.5935   0.5951   0.5966   0.5979   0.5637   0.5667

  WITH FROZEN REACTIONS

 Cp, KJ/(KG)(K)   19.5044  19.5376  19.5704  19.6029  19.6350  19.6667  19.1578  19.1920
 CONDUCTIVITY     13.1644  13.1581  13.1502  13.1409  13.1304  13.1187  13.1730  13.1887
 PRANDTL NUMBER    0.7194   0.7197   0.7200   0.7202   0.7203   0.7203   0.7133   0.7140

 MOLE FRACTIONS

 *H               0.67842  0.68889  0.69917  0.70928  0.71919  0.72890  0.56150  0.57311
 *H2              0.32158  0.31111  0.30083  0.29072  0.28081  0.27110  0.43850  0.42689

  * THERMODYNAMIC PROPERTIES FITTED TO 20000.K

 NOTE. WEIGHT FRACTION OF FUEL IN TOTAL FUELS AND OF OXIDANT IN TOTAL OXIDANTS









               THERMODYNAMIC EQUILIBRIUM PROPERTIES AT ASSIGNED

                           TEMPERATURE AND PRESSURE

 CASE =                

             REACTANT                    WT FRACTION      ENERGY      TEMP
                                          (SEE NOTE)     KJ/KG-MOL      K  
             H2                           1.0000000         0.000      0.000

 O/F=    0.00000  %FUEL=100.000000  R,EQ.RATIO= 0.000000  PHI,EQ.RATIO= 0.000000

 THERMODYNAMIC PROPERTIES

 P, BAR           0.01320  0.01320  0.01320  0.01320  0.01320  0.01320  0.01320  0.01320
 T, K             2870.00  2880.00  2890.00  2900.00  2910.00  2920.00  2930.00  2940.00
 RHO, KG/CU M    7.8914-5 7.8004-5 7.7104-5 7.6217-5 7.5341-5 7.4479-5 7.3629-5 7.2793-5
 H, KJ/KG        135684.2 138502.6 141343.8 144205.3 147084.1 149977.5 152882.4 155795.7
 U, KJ/KG        118957.2 121580.3 124224.2 126886.3 129563.9 132254.3 134954.7 137662.1
 G, KJ/KG       -306514.1-308059.8-309615.3-311180.6-312755.9-314341.0-315936.1-317541.2
 S, KJ/(KG)(K)   154.0761 155.0564 156.0412 157.0296 158.0206 159.0132 160.0063 160.9989

 M, (1/n)           1.427    1.415    1.404    1.392    1.381    1.370    1.359    1.348
 (dLV/dLP)t      -1.12122 -1.12216 -1.12297 -1.12365 -1.12419 -1.12460 -1.12486 -1.12499
 (dLV/dLT)p        3.3316   3.3417   3.3493   3.3544   3.3569   3.3567   3.3540   3.3486
 Cp, KJ/(KG)(K)  280.6091 283.0254 285.1805 287.0621 288.6593 289.9618 290.9607 291.6484
 GAMMAs            1.1227   1.1232   1.1237   1.1242   1.1247   1.1252   1.1257   1.1263
 SON VEL,M/SEC     4333.6   4359.7   4386.0   4412.4   4439.0   4465.6   4492.4   4519.3

 TRANSPORT PROPERTIES (GASES ONLY)
   CONDUCTIVITY IN UNITS OF MILLIWATTS/(CM)(K)

 VISC,MILLIPOISE  0.49081  0.49084  0.49075  0.49056  0.49025  0.48985  0.48934  0.48873

  WITH EQUILIBRIUM REACTIONS

 Cp, KJ/(KG)(K)  280.6091 283.0254 285.1805 287.0621 288.6593 289.9618 290.9607 291.6484
 CONDUCTIVITY    241.8250 242.7329 243.3943 243.8044 243.9596 243.8574 243.4961 242.8756
 PRANDTL NUMBER    0.5695   0.5723   0.5750   0.5776   0.5801   0.5825   0.5847   0.5869

  WITH FROZEN REACTIONS

 Cp, KJ/(KG)(K)   19.2263  19.2604  19.2946  19.3286  19.3625  19.3963  19.4298  19.4632
 CONDUCTIVITY     13.2019  13.2127  13.2211  13.2273  13.2313  13.2332  13.2332  13.2312
 PRANDTL NUMBER    0.7148   0.7155   0.7162   0.7168   0.7174   0.7180   0.7185   0.7189

 MOLE FRACTIONS

 *H               0.58464  0.59610  0.60747  0.61874  0.62989  0.64093  0.65183  0.66258
 *H2              0.41536  0.40390  0.39253  0.38126  0.37011  0.35907  0.34817  0.33742

  * THERMODYNAMIC PROPERTIES FITTED TO 20000.K

 NOTE. WEIGHT FRACTION OF FUEL IN TOTAL FUELS AND OF OXIDANT IN TOTAL OXIDANTS









               THERMODYNAMIC EQUILIBRIUM PROPERTIES AT ASSIGNED

                           TEMPERATURE AND PRESSURE

 CASE =                

             REACTANT                    WT FRACTION      ENERGY      TEMP
                                          (SEE NOTE)     KJ/KG-MOL      K  
             H2                           1.0000000         0.000      0.000

 O/F=    0.00000  %FUEL=100.000000  R,EQ.RATIO= 0.000000  PHI,EQ.RATIO= 0.000000

 THERMODYNAMIC PROPERTIES

 P, BAR           0.01320  0.01320  0.01320  0.01320  0.01320  0.01480  0.01480  0.01480
 T, K             2950.00  2960.00  2970.00  2980.00  2990.00  2850.00  2860.00  2870.00
 RHO, KG/CU M    7.1971-5 7.1163-5 7.0370-5 6.9592-5 6.8829-5 9.1787-5 9.0742-5 8.9706-5
 H, KJ/KG        158714.3 161635.0 164554.5 167469.7 170377.1 125885.5 128570.3 131285.8
 U, KJ/KG        140373.6 143086.1 145796.6 148501.9 151199.0 109761.2 112260.2 114787.5
 G, KJ/KG       -319156.1-320780.9-322415.7-324060.2-325714.5-301594.8-303099.5-304613.5
 S, KJ/(KG)(K)   161.9900 162.9783 163.9630 164.9429 165.9169 149.9931 150.9335 151.8813

 M, (1/n)           1.337    1.327    1.316    1.306    1.296    1.470    1.458    1.446
 (dLV/dLP)t      -1.12497 -1.12481 -1.12451 -1.12407 -1.12348 -1.11677 -1.11812 -1.11936
 (dLV/dLT)p        3.3405   3.3299   3.3166   3.3008   3.2826   3.2613   3.2796   3.2957
 Cp, KJ/(KG)(K)  292.0187 292.0668 291.7896 291.1857 290.2551 266.8692 270.0473 273.0214
 GAMMAs            1.1269   1.1275   1.1281   1.1288   1.1295   1.1220   1.1224   1.1228
 SON VEL,M/SEC     4546.2   4573.2   4600.2   4627.2   4654.1   4253.4   4278.5   4303.9

 TRANSPORT PROPERTIES (GASES ONLY)
   CONDUCTIVITY IN UNITS OF MILLIWATTS/(CM)(K)

 VISC,MILLIPOISE  0.48803  0.48723  0.48635  0.48538  0.48434  0.49216  0.49260  0.49293

  WITH EQUILIBRIUM REACTIONS

 Cp, KJ/(KG)(K)  292.0187 292.0668 291.7896 291.1857 290.2551 266.8692 270.0473 273.0214
 CONDUCTIVITY    241.9967 240.8615 239.4734 237.8366 235.9570 235.1205 236.8448 238.3538
 PRANDTL NUMBER    0.5889   0.5908   0.5926   0.5943   0.5958   0.5586   0.5617   0.5646

  WITH FROZEN REACTIONS

 Cp, KJ/(KG)(K)   19.4963  19.5291  19.5617  19.5938  19.6257  19.1130  19.1466  19.1803
 CONDUCTIVITY     13.2274  13.2220  13.2150  13.2066  13.1969  13.2124  13.2323  13.2497
 PRANDTL NUMBER    0.7193   0.7197   0.7199   0.7201   0.7203   0.7120   0.7128   0.7136

 MOLE FRACTIONS

 *H               0.67319  0.68364  0.69391  0.70401  0.71392  0.54197  0.55352  0.56502
 *H2              0.32681  0.31636  0.30609  0.29599  0.28608  0.45803  0.44648  0.43498

  * THERMODYNAMIC PROPERTIES FITTED TO 20000.K

 NOTE. WEIGHT FRACTION OF FUEL IN TOTAL FUELS AND OF OXIDANT IN TOTAL OXIDANTS









               THERMODYNAMIC EQUILIBRIUM PROPERTIES AT ASSIGNED

                           TEMPERATURE AND PRESSURE

 CASE =                

             REACTANT                    WT FRACTION      ENERGY      TEMP
                                          (SEE NOTE)     KJ/KG-MOL      K  
             H2                           1.0000000         0.000      0.000

 O/F=    0.00000  %FUEL=100.000000  R,EQ.RATIO= 0.000000  PHI,EQ.RATIO= 0.000000

 THERMODYNAMIC PROPERTIES

 P, BAR           0.01480  0.01480  0.01480  0.01480  0.01480  0.01480  0.01480  0.01480
 T, K             2880.00  2890.00  2900.00  2910.00  2920.00  2930.00  2940.00  2950.00
 RHO, KG/CU M    8.8682-5 8.7668-5 8.6667-5 8.5678-5 8.4702-5 8.3739-5 8.2791-5 8.1857-5
 H, KJ/KG        134030.0 136800.6 139595.2 142411.4 145246.5 148097.9 150962.6 153837.9
 U, KJ/KG        117341.0 119918.7 122518.3 125137.4 127773.5 130424.0 133086.3 135757.5
 G, KJ/KG       -306137.1-307670.3-309213.0-310765.5-312327.7-313899.6-315481.2-317072.7
 S, KJ/(KG)(K)   152.8358 153.7961 154.7615 155.7309 156.7035 157.6783 158.6544 159.6307

 M, (1/n)           1.435    1.423    1.412    1.401    1.389    1.378    1.367    1.357
 (dLV/dLP)t      -1.12048 -1.12150 -1.12239 -1.12315 -1.12379 -1.12430 -1.12467 -1.12490
 (dLV/dLT)p        3.3096   3.3212   3.3304   3.3372   3.3415   3.3433   3.3425   3.3392
 Cp, KJ/(KG)(K)  275.7778 278.3033 280.5851 282.6112 284.3704 285.8522 287.0475 287.9479
 GAMMAs            1.1232   1.1236   1.1241   1.1246   1.1251   1.1256   1.1261   1.1267
 SON VEL,M/SEC     4329.5   4355.3   4381.3   4407.5   4433.8   4460.2   4486.7   4513.4

 TRANSPORT PROPERTIES (GASES ONLY)
   CONDUCTIVITY IN UNITS OF MILLIWATTS/(CM)(K)

 VISC,MILLIPOISE  0.49315  0.49326  0.49326  0.49316  0.49295  0.49263  0.49222  0.49170

  WITH EQUILIBRIUM REACTIONS

 Cp, KJ/(KG)(K)  275.7778 278.3033 280.5851 282.6112 284.3704 285.8522 287.0475 287.9479
 CONDUCTIVITY    239.6400 240.6967 241.5178 242.0984 242.4341 242.5217 242.3591 241.9451
 PRANDTL NUMBER    0.5675   0.5703   0.5730   0.5757   0.5782   0.5806   0.5830   0.5852

  WITH FROZEN REACTIONS

 Cp, KJ/(KG)(K)   19.2139  19.2476  19.2812  19.3147  19.3481  19.3813  19.4145  19.4474
 CONDUCTIVITY     13.2647  13.2773  13.2875  13.2954  13.3012  13.3048  13.3064  13.3061
 PRANDTL NUMBER    0.7143   0.7151   0.7158   0.7164   0.7170   0.7176   0.7182   0.7186

 MOLE FRACTIONS

 *H               0.57647  0.58785  0.59915  0.61036  0.62147  0.63247  0.64334  0.65408
 *H2              0.42353  0.41215  0.40085  0.38964  0.37853  0.36753  0.35666  0.34592

  * THERMODYNAMIC PROPERTIES FITTED TO 20000.K

 NOTE. WEIGHT FRACTION OF FUEL IN TOTAL FUELS AND OF OXIDANT IN TOTAL OXIDANTS









               THERMODYNAMIC EQUILIBRIUM PROPERTIES AT ASSIGNED

                           TEMPERATURE AND PRESSURE

 CASE =                

             REACTANT                    WT FRACTION      ENERGY      TEMP
                                          (SEE NOTE)     KJ/KG-MOL      K  
             H2                           1.0000000         0.000      0.000

 O/F=    0.00000  %FUEL=100.000000  R,EQ.RATIO= 0.000000  PHI,EQ.RATIO= 0.000000

 THERMODYNAMIC PROPERTIES

 P, BAR           0.01480  0.01480  0.01480  0.01480  0.01650  0.01650  0.01650  0.01650
 T, K             2960.00  2970.00  2980.00  2990.00  2850.00  2860.00  2870.00  2880.00
 RHO, KG/CU M    8.0938-5 8.0034-5 7.9146-5 7.8274-5 1.0362-4 1.0246-4 1.0131-4 1.0016-4
 H, KJ/KG        156720.6 159607.8 162496.3 165383.1 121984.6 124589.9 127228.2 129897.8
 U, KJ/KG        138435.0 141115.7 143796.7 146475.2 106061.8 108486.1 110940.9 113424.4
 G, KJ/KG       -318673.8-320284.8-321905.4-323535.8-299852.6-301337.3-302831.1-304334.2
 S, KJ/(KG)(K)   160.6062 161.5800 162.5509 163.5180 148.0131 148.9256 149.8465 150.7750

 M, (1/n)           1.346    1.335    1.325    1.315    1.488    1.477    1.465    1.454
 (dLV/dLP)t      -1.12500 -1.12495 -1.12477 -1.12445 -1.11443 -1.11591 -1.11730 -1.11859
 (dLV/dLT)p        3.3333   3.3249   3.3139   3.3004   3.2159   3.2371   3.2563   3.2734
 Cp, KJ/(KG)(K)  288.5466 288.8381 288.8181 288.4840 258.8191 262.2099 265.4246 268.4498
 GAMMAs            1.1272   1.1278   1.1285   1.1291   1.1221   1.1225   1.1228   1.1232
 SON VEL,M/SEC     4540.1   4566.8   4593.6   4620.5   4227.0   4251.6   4276.5   4301.6

 TRANSPORT PROPERTIES (GASES ONLY)
   CONDUCTIVITY IN UNITS OF MILLIWATTS/(CM)(K)

 VISC,MILLIPOISE  0.49109  0.49038  0.48959  0.48870  0.49351  0.49412  0.49463  0.49504

  WITH EQUILIBRIUM REACTIONS

 Cp, KJ/(KG)(K)  288.5466 288.8381 288.8181 288.4840 258.8191 262.2099 265.4246 268.4498
 CONDUCTIVITY    241.2798 240.3643 239.2008 237.7927 230.6949 232.7069 234.5224 236.1334
 PRANDTL NUMBER    0.5873   0.5893   0.5911   0.5929   0.5537   0.5568   0.5598   0.5628

  WITH FROZEN REACTIONS

 Cp, KJ/(KG)(K)   19.4801  19.5125  19.5447  19.5766  19.0719  19.1048  19.1379  19.1710
 CONDUCTIVITY     13.3039  13.2999  13.2944  13.2874  13.2434  13.2674  13.2889  13.3079
 PRANDTL NUMBER    0.7191   0.7194   0.7198   0.7200   0.7107   0.7115   0.7123   0.7131

 MOLE FRACTIONS

 *H               0.66468  0.67513  0.68542  0.69554  0.52352  0.53499  0.54644  0.55784
 *H2              0.33532  0.32487  0.31458  0.30446  0.47648  0.46501  0.45356  0.44216

  * THERMODYNAMIC PROPERTIES FITTED TO 20000.K

 NOTE. WEIGHT FRACTION OF FUEL IN TOTAL FUELS AND OF OXIDANT IN TOTAL OXIDANTS









               THERMODYNAMIC EQUILIBRIUM PROPERTIES AT ASSIGNED

                           TEMPERATURE AND PRESSURE

 CASE =                

             REACTANT                    WT FRACTION      ENERGY      TEMP
                                          (SEE NOTE)     KJ/KG-MOL      K  
             H2                           1.0000000         0.000      0.000

 O/F=    0.00000  %FUEL=100.000000  R,EQ.RATIO= 0.000000  PHI,EQ.RATIO= 0.000000

 THERMODYNAMIC PROPERTIES

 P, BAR           0.01650  0.01650  0.01650  0.01650  0.01650  0.01650  0.01650  0.01650
 T, K             2890.00  2900.00  2910.00  2920.00  2930.00  2940.00  2950.00  2960.00
 RHO, KG/CU M    9.9029-5 9.7908-5 9.6800-5 9.5705-5 9.4624-5 9.3557-5 9.2505-5 9.1469-5
 H, KJ/KG        132596.6 135322.5 138073.4 140846.9 143640.5 146451.7 149277.8 152116.1
 U, KJ/KG        115934.8 118470.0 121027.9 123606.4 126203.0 128815.4 131441.0 134077.2
 G, KJ/KG       -305846.7-307368.5-308899.7-310440.5-311990.7-313550.6-315120.0-316699.0
 S, KJ/(KG)(K)   151.7105 152.6521 153.5990 154.5505 155.5055 156.4634 157.4230 158.3835

 M, (1/n)           1.442    1.431    1.419    1.408    1.397    1.386    1.375    1.364
 (dLV/dLP)t      -1.11978 -1.12085 -1.12181 -1.12265 -1.12337 -1.12396 -1.12442 -1.12475
 (dLV/dLT)p        3.2884   3.3012   3.3118   3.3200   3.3258   3.3292   3.3302   3.3287
 Cp, KJ/(KG)(K)  271.2724 273.8793 276.2582 278.3972 280.2851 281.9113 283.2665 284.3420
 GAMMAs            1.1237   1.1241   1.1245   1.1250   1.1255   1.1260   1.1265   1.1270
 SON VEL,M/SEC     4326.9   4352.4   4378.1   4404.0   4430.1   4456.3   4482.6   4509.0

 TRANSPORT PROPERTIES (GASES ONLY)
   CONDUCTIVITY IN UNITS OF MILLIWATTS/(CM)(K)

 VISC,MILLIPOISE  0.49533  0.49552  0.49561  0.49558  0.49546  0.49522  0.49489  0.49446

  WITH EQUILIBRIUM REACTIONS

 Cp, KJ/(KG)(K)  271.2724 273.8793 276.2582 278.3972 280.2851 281.9113 283.2665 284.3420
 CONDUCTIVITY    237.5321 238.7117 239.6660 240.3896 240.8778 241.1270 241.1344 240.8983
 PRANDTL NUMBER    0.5657   0.5685   0.5713   0.5739   0.5765   0.5790   0.5814   0.5836

  WITH FROZEN REACTIONS

 Cp, KJ/(KG)(K)   19.2041  19.2372  19.2702  19.3033  19.3362  19.3690  19.4016  19.4341
 CONDUCTIVITY     13.3244  13.3386  13.3504  13.3600  13.3673  13.3725  13.3756  13.3767
 PRANDTL NUMBER    0.7139   0.7147   0.7154   0.7160   0.7167   0.7173   0.7179   0.7184

 MOLE FRACTIONS

 *H               0.56920  0.58050  0.59173  0.60287  0.61392  0.62487  0.63571  0.64642
 *H2              0.43080  0.41950  0.40827  0.39713  0.38608  0.37513  0.36429  0.35358

  * THERMODYNAMIC PROPERTIES FITTED TO 20000.K

 NOTE. WEIGHT FRACTION OF FUEL IN TOTAL FUELS AND OF OXIDANT IN TOTAL OXIDANTS









               THERMODYNAMIC EQUILIBRIUM PROPERTIES AT ASSIGNED

                           TEMPERATURE AND PRESSURE

 CASE =                

             REACTANT                    WT FRACTION      ENERGY      TEMP
                                          (SEE NOTE)     KJ/KG-MOL      K  
             H2                           1.0000000         0.000      0.000

 O/F=    0.00000  %FUEL=100.000000  R,EQ.RATIO= 0.000000  PHI,EQ.RATIO= 0.000000

 THERMODYNAMIC PROPERTIES

 P, BAR           0.01650  0.01650  0.01650  0.01800  0.01800  0.01800  0.01800  0.01800
 T, K             2970.00  2980.00  2990.00  2850.00  2860.00  2870.00  2880.00  2890.00
 RHO, KG/CU M    9.0448-5 8.9444-5 8.8456-5 1.1417-4 1.1290-4 1.1164-4 1.1039-4 1.0916-4
 H, KJ/KG        154963.7 157817.7 160675.2 118956.4 121496.5 124071.1 126678.6 129317.3
 U, KJ/KG        136721.2 139370.4 142022.0 103189.9 105553.0 107947.9 110373.2 112827.1
 G, KJ/KG       -318287.7-319885.9-321493.7-298474.0-299943.1-301421.1-302908.2-304404.4
 S, KJ/(KG)(K)   159.3439 160.3032 161.2605 146.4668 147.3565 148.2551 149.1621 150.0767

 M, (1/n)           1.354    1.343    1.333    1.503    1.491    1.480    1.469    1.457
 (dLV/dLP)t      -1.12494 -1.12500 -1.12492 -1.11240 -1.11399 -1.11549 -1.11689 -1.11820
 (dLV/dLT)p        3.3246   3.3181   3.3092   3.1767   3.1999   3.2213   3.2408   3.2583
 Cp, KJ/(KG)(K)  285.1305 285.6258 285.8229 252.2356 255.7623 259.1342 262.3382 265.3614
 GAMMAs            1.1276   1.1282   1.1288   1.1222   1.1226   1.1229   1.1233   1.1237
 SON VEL,M/SEC     4535.5   4562.0   4588.6   4206.4   4230.6   4255.0   4279.7   4304.6

 TRANSPORT PROPERTIES (GASES ONLY)
   CONDUCTIVITY IN UNITS OF MILLIWATTS/(CM)(K)

 VISC,MILLIPOISE  0.49393  0.49330  0.49259  0.49439  0.49514  0.49579  0.49634  0.49678

  WITH EQUILIBRIUM REACTIONS

 Cp, KJ/(KG)(K)  285.1305 285.6258 285.8229 252.2356 255.7623 259.1342 262.3382 265.3614
 CONDUCTIVITY    240.4180 239.6938 238.7271 226.8708 229.0877 231.1234 232.9692 234.6172
 PRANDTL NUMBER    0.5858   0.5878   0.5898   0.5497   0.5528   0.5559   0.5589   0.5619

  WITH FROZEN REACTIONS

 Cp, KJ/(KG)(K)   19.4664  19.4985  19.5303  19.0399  19.0724  19.1049  19.1375  19.1702
 CONDUCTIVITY     13.3760  13.3735  13.3693  13.2638  13.2910  13.3157  13.3380  13.3577
 PRANDTL NUMBER    0.7188   0.7192   0.7196   0.7097   0.7105   0.7113   0.7122   0.7129

 MOLE FRACTIONS

 *H               0.65700  0.66744  0.67773  0.50888  0.52027  0.53164  0.54299  0.55431
 *H2              0.34300  0.33256  0.32227  0.49112  0.47973  0.46836  0.45701  0.44569

  * THERMODYNAMIC PROPERTIES FITTED TO 20000.K

 NOTE. WEIGHT FRACTION OF FUEL IN TOTAL FUELS AND OF OXIDANT IN TOTAL OXIDANTS









               THERMODYNAMIC EQUILIBRIUM PROPERTIES AT ASSIGNED

                           TEMPERATURE AND PRESSURE

 CASE =                

             REACTANT                    WT FRACTION      ENERGY      TEMP
                                          (SEE NOTE)     KJ/KG-MOL      K  
             H2                           1.0000000         0.000      0.000

 O/F=    0.00000  %FUEL=100.000000  R,EQ.RATIO= 0.000000  PHI,EQ.RATIO= 0.000000

 THERMODYNAMIC PROPERTIES

 P, BAR           0.01800  0.01800  0.01800  0.01800  0.01800  0.01800  0.01800  0.01800
 T, K             2900.00  2910.00  2920.00  2930.00  2940.00  2950.00  2960.00  2970.00
 RHO, KG/CU M    1.0793-4 1.0672-4 1.0552-4 1.0434-4 1.0317-4 1.0201-4 1.0087-4 9.9748-5
 H, KJ/KG        131985.2 134680.4 137400.8 140144.0 142907.9 145689.8 148487.2 151297.6
 U, KJ/KG        115308.0 117813.8 120342.5 122892.1 125460.2 128044.5 130642.7 133252.1
 G, KJ/KG       -305909.8-307424.4-308948.3-310481.6-312024.3-313576.4-315137.9-316709.0
 S, KJ/(KG)(K)   150.9983 151.9260 152.8593 153.7971 154.7388 155.6834 156.6301 157.5780

 M, (1/n)           1.446    1.435    1.423    1.412    1.401    1.390    1.379    1.368
 (dLV/dLP)t      -1.11941 -1.12051 -1.12150 -1.12238 -1.12313 -1.12376 -1.12426 -1.12464
 (dLV/dLT)p        3.2738   3.2871   3.2982   3.3071   3.3136   3.3178   3.3196   3.3190
 Cp, KJ/(KG)(K)  268.1910 270.8144 273.2195 275.3946 277.3289 279.0119 280.4343 281.5874
 GAMMAs            1.1241   1.1245   1.1250   1.1254   1.1259   1.1264   1.1269   1.1275
 SON VEL,M/SEC     4329.8   4355.1   4380.7   4406.4   4432.2   4458.2   4484.4   4510.6

 TRANSPORT PROPERTIES (GASES ONLY)
   CONDUCTIVITY IN UNITS OF MILLIWATTS/(CM)(K)

 VISC,MILLIPOISE  0.49712  0.49735  0.49747  0.49749  0.49741  0.49723  0.49694  0.49655

  WITH EQUILIBRIUM REACTIONS

 Cp, KJ/(KG)(K)  268.1910 270.8144 273.2195 275.3946 277.3289 279.0119 280.4343 281.5874
 CONDUCTIVITY    236.0600 237.2906 238.3027 239.0911 239.6508 239.9782 240.0701 239.9247
 PRANDTL NUMBER    0.5648   0.5676   0.5704   0.5730   0.5756   0.5781   0.5805   0.5828

  WITH FROZEN REACTIONS

 Cp, KJ/(KG)(K)   19.2028  19.2355  19.2681  19.3007  19.3332  19.3656  19.3979  19.4300
 CONDUCTIVITY     13.3751  13.3901  13.4027  13.4131  13.4213  13.4273  13.4312  13.4332
 PRANDTL NUMBER    0.7137   0.7145   0.7152   0.7159   0.7165   0.7171   0.7177   0.7182

 MOLE FRACTIONS

 *H               0.56558  0.57680  0.58795  0.59902  0.61001  0.62090  0.63168  0.64234
 *H2              0.43442  0.42320  0.41205  0.40098  0.38999  0.37910  0.36832  0.35766

  * THERMODYNAMIC PROPERTIES FITTED TO 20000.K

 NOTE. WEIGHT FRACTION OF FUEL IN TOTAL FUELS AND OF OXIDANT IN TOTAL OXIDANTS









               THERMODYNAMIC EQUILIBRIUM PROPERTIES AT ASSIGNED

                           TEMPERATURE AND PRESSURE

 CASE =                

             REACTANT                    WT FRACTION      ENERGY      TEMP
                                          (SEE NOTE)     KJ/KG-MOL      K  
             H2                           1.0000000         0.000      0.000

 O/F=    0.00000  %FUEL=100.000000  R,EQ.RATIO= 0.000000  PHI,EQ.RATIO= 0.000000

 THERMODYNAMIC PROPERTIES

 P, BAR           0.01800  0.01800  0.02000  0.02000  0.02000  0.02000  0.02000  0.02000
 T, K             2980.00  2990.00  2850.00  2860.00  2870.00  2880.00  2890.00  2900.00
 RHO, KG/CU M    9.8642-5 9.7553-5 1.2835-4 1.2694-4 1.2555-4 1.2416-4 1.2279-4 1.2143-4
 H, KJ/KG        154118.1 156945.9 115402.7 117862.6 120358.4 122888.8 125452.1 128046.9
 U, KJ/KG        135870.2 138494.4  99819.8 102107.4 104428.3 106781.0 109164.3 111576.5
 G, KJ/KG       -318289.5-319879.5-296822.5-298273.2-299732.6-301200.7-302677.7-304163.6
 S, KJ/(KG)(K)   158.5260 159.4734 144.6404 145.5021 146.3732 147.2533 148.1418 149.0381

 M, (1/n)           1.358    1.347    1.521    1.509    1.498    1.487    1.475    1.464
 (dLV/dLP)t      -1.12488 -1.12499 -1.10980 -1.11149 -1.11310 -1.11464 -1.11608 -1.11744
 (dLV/dLT)p        3.3160   3.3105   3.1264   3.1518   3.1755   3.1976   3.2178   3.2361
 Cp, KJ/(KG)(K)  282.4638 283.0570 244.1532 247.8069 251.3300 254.7100 257.9344 260.9907
 GAMMAs            1.1280   1.1286   1.1224   1.1228   1.1231   1.1234   1.1238   1.1242
 SON VEL,M/SEC     4536.9   4563.3   4182.2   4205.9   4229.8   4253.9   4278.3   4303.0

 TRANSPORT PROPERTIES (GASES ONLY)
   CONDUCTIVITY IN UNITS OF MILLIWATTS/(CM)(K)

 VISC,MILLIPOISE  0.49607  0.49549  0.49523  0.49614  0.49695  0.49767  0.49828  0.49879

  WITH EQUILIBRIUM REACTIONS

 Cp, KJ/(KG)(K)  282.4638 283.0570 244.1532 247.8069 251.3300 254.7100 257.9344 260.9907
 CONDUCTIVITY    239.5409 238.9185 221.9498 224.3854 226.6578 228.7585 230.6790 232.4114
 PRANDTL NUMBER    0.5850   0.5870   0.5448   0.5479   0.5510   0.5541   0.5572   0.5601

  WITH FROZEN REACTIONS

 Cp, KJ/(KG)(K)   19.4619  19.4936  19.0024  19.0342  19.0661  19.0981  19.1302  19.1623
 CONDUCTIVITY     13.4333  13.4316  13.2833  13.3143  13.3429  13.3690  13.3927  13.4139
 PRANDTL NUMBER    0.7187   0.7191   0.7084   0.7093   0.7101   0.7109   0.7117   0.7125

 MOLE FRACTIONS

 *H               0.65288  0.66328  0.49132  0.50258  0.51385  0.52511  0.53635  0.54757
 *H2              0.34712  0.33672  0.50868  0.49742  0.48615  0.47489  0.46365  0.45243

  * THERMODYNAMIC PROPERTIES FITTED TO 20000.K

 NOTE. WEIGHT FRACTION OF FUEL IN TOTAL FUELS AND OF OXIDANT IN TOTAL OXIDANTS









               THERMODYNAMIC EQUILIBRIUM PROPERTIES AT ASSIGNED

                           TEMPERATURE AND PRESSURE

 CASE =                

             REACTANT                    WT FRACTION      ENERGY      TEMP
                                          (SEE NOTE)     KJ/KG-MOL      K  
             H2                           1.0000000         0.000      0.000

 O/F=    0.00000  %FUEL=100.000000  R,EQ.RATIO= 0.000000  PHI,EQ.RATIO= 0.000000

 THERMODYNAMIC PROPERTIES

 P, BAR           0.02000  0.02000  0.02000  0.02000  0.02000  0.02000  0.02000  0.02000
 T, K             2910.00  2920.00  2930.00  2940.00  2950.00  2960.00  2970.00  2980.00
 RHO, KG/CU M    1.2008-4 1.1875-4 1.1742-4 1.1612-4 1.1483-4 1.1355-4 1.1229-4 1.1105-4
 H, KJ/KG        130671.3 133323.6 136001.7 138703.4 141426.7 144169.2 146928.5 149702.0
 U, KJ/KG        114015.9 116480.9 118969.4 121479.5 124009.1 126556.0 129117.9 131692.3
 G, KJ/KG       -305658.5-307162.4-308675.5-310197.8-311729.3-313270.0-314820.1-316379.5
 S, KJ/(KG)(K)   149.9415 150.8514 151.7670 152.6875 153.6122 154.5403 155.4709 156.4032

 M, (1/n)           1.453    1.441    1.430    1.419    1.408    1.397    1.386    1.376
 (dLV/dLP)t      -1.11869 -1.11985 -1.12090 -1.12183 -1.12265 -1.12336 -1.12394 -1.12440
 (dLV/dLT)p        3.2525   3.2669   3.2791   3.2892   3.2971   3.3027   3.3060   3.3070
 Cp, KJ/(KG)(K)  263.8666 266.5499 269.0289 271.2921 273.3286 275.1283 276.6816 277.9797
 GAMMAs            1.1246   1.1250   1.1254   1.1259   1.1263   1.1268   1.1273   1.1279
 SON VEL,M/SEC     4327.8   4352.9   4378.2   4403.6   4429.2   4455.0   4480.9   4506.9

 TRANSPORT PROPERTIES (GASES ONLY)
   CONDUCTIVITY IN UNITS OF MILLIWATTS/(CM)(K)

 VISC,MILLIPOISE  0.49920  0.49950  0.49970  0.49980  0.49979  0.49968  0.49948  0.49917

  WITH EQUILIBRIUM REACTIONS

 Cp, KJ/(KG)(K)  263.8666 266.5499 269.0289 271.2921 273.3286 275.1283 276.6816 277.9797
 CONDUCTIVITY    233.9483 235.2827 236.4082 237.3192 238.0107 238.4785 238.7193 238.7305
 PRANDTL NUMBER    0.5630   0.5659   0.5687   0.5713   0.5740   0.5765   0.5789   0.5812

  WITH FROZEN REACTIONS

 Cp, KJ/(KG)(K)   19.1945  19.2266  19.2587  19.2908  19.3229  19.3548  19.3866  19.4183
 CONDUCTIVITY     13.4328  13.4493  13.4634  13.4753  13.4850  13.4925  13.4979  13.5013
 PRANDTL NUMBER    0.7133   0.7141   0.7148   0.7155   0.7162   0.7168   0.7174   0.7179

 MOLE FRACTIONS

 *H               0.55875  0.56988  0.58095  0.59195  0.60287  0.61371  0.62444  0.63506
 *H2              0.44125  0.43012  0.41905  0.40805  0.39713  0.38629  0.37556  0.36494

  * THERMODYNAMIC PROPERTIES FITTED TO 20000.K

 NOTE. WEIGHT FRACTION OF FUEL IN TOTAL FUELS AND OF OXIDANT IN TOTAL OXIDANTS









               THERMODYNAMIC EQUILIBRIUM PROPERTIES AT ASSIGNED

                           TEMPERATURE AND PRESSURE

 CASE =                

             REACTANT                    WT FRACTION      ENERGY      TEMP
                                          (SEE NOTE)     KJ/KG-MOL      K  
             H2                           1.0000000         0.000      0.000

 O/F=    0.00000  %FUEL=100.000000  R,EQ.RATIO= 0.000000  PHI,EQ.RATIO= 0.000000

 THERMODYNAMIC PROPERTIES

 P, BAR           0.02000
 T, K             2990.00
 RHO, KG/CU M    1.0983-4
 H, KJ/KG        152487.2
 U, KJ/KG        134276.9
 G, KJ/KG       -317948.2
 S, KJ/(KG)(K)   157.3362

 M, (1/n)           1.365
 (dLV/dLP)t      -1.12473
 (dLV/dLT)p        3.3056
 Cp, KJ/(KG)(K)  279.0149
 GAMMAs            1.1284
 SON VEL,M/SEC     4533.0

 TRANSPORT PROPERTIES (GASES ONLY)
   CONDUCTIVITY IN UNITS OF MILLIWATTS/(CM)(K)

 VISC,MILLIPOISE  0.49876

  WITH EQUILIBRIUM REACTIONS

 Cp, KJ/(KG)(K)  279.0149
 CONDUCTIVITY    238.5105
 PRANDTL NUMBER    0.5835

  WITH FROZEN REACTIONS

 Cp, KJ/(KG)(K)   19.4498
 CONDUCTIVITY     13.5028
 PRANDTL NUMBER    0.7184

 MOLE FRACTIONS

 *H               0.64557
 *H2              0.35443

  * THERMODYNAMIC PROPERTIES FITTED TO 20000.K

 NOTE. WEIGHT FRACTION OF FUEL IN TOTAL FUELS AND OF OXIDANT IN TOTAL OXIDANTS



  
