
 *******************************************************************************

         NASA-GLENN CHEMICAL EQUILIBRIUM PROGRAM CEA2, MAY 21, 2004
                   BY  BONNIE MCBRIDE AND SANFORD GORDON
      REFS: NASA RP-1311, PART I, 1994 AND NASA RP-1311, PART II, 1996

 *******************************************************************************



  prob tp ions
  p,bar= 0.0049,0.0054,0.006,0.0067,0.0074,0.00825,0.0091,0.01,0.011,0.012,0.0132
 ,0.0148,0.0165,0.018,0.02
  t,k= 2100,2110,2120,2130,2140,2150,2160,2170,2180,2190,2200,2210,2220,2230,2240
  
  reac
  na H2                wt%=100.0000
  
  output short
  output siunits
  output transport
  
 end





               THERMODYNAMIC EQUILIBRIUM PROPERTIES AT ASSIGNED

                           TEMPERATURE AND PRESSURE

 CASE =                

             REACTANT                    WT FRACTION      ENERGY      TEMP
                                          (SEE NOTE)     KJ/KG-MOL      K  
             H2                           1.0000000         0.000      0.000

 O/F=    0.00000  %FUEL=100.000000  R,EQ.RATIO= 0.000000  PHI,EQ.RATIO= 0.000000

 THERMODYNAMIC PROPERTIES

 P, BAR           0.00490  0.00490  0.00490  0.00490  0.00490  0.00490  0.00490  0.00490
 T, K             2100.00  2110.00  2120.00  2130.00  2140.00  2150.00  2160.00  2170.00
 RHO, KG/CU M    5.5339-5 5.5001-5 5.4661-5 5.4321-5 5.3981-5 5.3639-5 5.3296-5 5.2952-5
 H, KJ/KG         33000.3  33492.5  34002.0  34529.5  35075.9  35641.7  36227.9  36835.3
 U, KJ/KG         24145.8  24583.5  25037.7  25509.2  25998.5  26506.6  27034.0  27581.6
 G, KJ/KG       -216509.1-217697.9-218889.5-220083.7-221280.3-222479.5-223681.5-224886.1
 S, KJ/(KG)(K)   118.8140 119.0476 119.2885 119.5367 119.7926 120.0564 120.3284 120.6090

 M, (1/n)           1.972    1.969    1.966    1.963    1.960    1.957    1.953    1.950
 (dLV/dLP)t      -1.01089 -1.01157 -1.01228 -1.01303 -1.01381 -1.01463 -1.01548 -1.01638
 (dLV/dLT)p        1.2836   1.2998   1.3168   1.3345   1.3529   1.3722   1.3922   1.4131
 Cp, KJ/(KG)(K)   48.3777  50.0732  51.8401  53.6807  55.5970  57.5912  59.6653  61.8215
 GAMMAs            1.1530   1.1506   1.1483   1.1461   1.1440   1.1419   1.1400   1.1381
 SON VEL,M/SEC     3195.2   3201.7   3208.4   3215.3   3222.4   3229.8   3237.4   3245.3

 TRANSPORT PROPERTIES (GASES ONLY)
   CONDUCTIVITY IN UNITS OF MILLIWATTS/(CM)(K)

 VISC,MILLIPOISE  0.35526  0.35699  0.35874  0.36052  0.36232  0.36415  0.36601  0.36789

  WITH EQUILIBRIUM REACTIONS

 Cp, KJ/(KG)(K)   48.3777  50.0732  51.8401  53.6807  55.5970  57.5912  59.6653  61.8215
 CONDUCTIVITY     37.6690  39.3589  41.1221  42.9601  44.8750  46.8685  48.9426  51.0990
 PRANDTL NUMBER    0.4562   0.4542   0.4522   0.4505   0.4489   0.4475   0.4462   0.4451

  WITH FROZEN REACTIONS

 Cp, KJ/(KG)(K)   17.2497  17.2707  17.2919  17.3131  17.3346  17.3562  17.3780  17.3999
 CONDUCTIVITY      8.7794   8.8361   8.8941   8.9529   9.0128   9.0735   9.1353   9.1980
 PRANDTL NUMBER    0.6980   0.6977   0.6975   0.6972   0.6969   0.6966   0.6963   0.6960

 MOLE FRACTIONS

 *H               0.04360  0.04631  0.04916  0.05214  0.05527  0.05856  0.06200  0.06560
 *H2              0.95640  0.95369  0.95084  0.94786  0.94473  0.94144  0.93800  0.93440

  * THERMODYNAMIC PROPERTIES FITTED TO 20000.K

 NOTE. WEIGHT FRACTION OF FUEL IN TOTAL FUELS AND OF OXIDANT IN TOTAL OXIDANTS









               THERMODYNAMIC EQUILIBRIUM PROPERTIES AT ASSIGNED

                           TEMPERATURE AND PRESSURE

 CASE =                

             REACTANT                    WT FRACTION      ENERGY      TEMP
                                          (SEE NOTE)     KJ/KG-MOL      K  
             H2                           1.0000000         0.000      0.000

 O/F=    0.00000  %FUEL=100.000000  R,EQ.RATIO= 0.000000  PHI,EQ.RATIO= 0.000000

 THERMODYNAMIC PROPERTIES

 P, BAR           0.00490  0.00490  0.00490  0.00490  0.00490  0.00490  0.00490  0.00540
 T, K             2180.00  2190.00  2200.00  2210.00  2220.00  2230.00  2240.00  2100.00
 RHO, KG/CU M    5.2606-5 5.2259-5 5.1911-5 5.1560-5 5.1208-5 5.0854-5 5.0498-5 6.1049-5
 H, KJ/KG         37464.7  38116.8  38792.7  39493.2  40219.2  40971.7  41751.6  32762.1
 U, KJ/KG         28150.2  28740.5  29353.4  29989.8  30650.5  31336.3  32048.3  23916.8
 G, KJ/KG       -226093.7-227304.1-228517.6-229734.3-230954.1-232177.3-233403.9-215648.7
 S, KJ/(KG)(K)   120.8983 121.1968 121.5047 121.8224 122.1502 122.4883 122.8373 118.2909

 M, (1/n)           1.946    1.942    1.938    1.934    1.929    1.924    1.919    1.974
 (dLV/dLP)t      -1.01732 -1.01830 -1.01932 -1.02039 -1.02150 -1.02266 -1.02387 -1.01039
 (dLV/dLT)p        1.4348   1.4574   1.4808   1.5052   1.5304   1.5566   1.5837   1.2705
 Cp, KJ/(KG)(K)   64.0619  66.3887  68.8039  71.3097  73.9081  76.6011  79.3908  46.9000
 GAMMAs            1.1363   1.1347   1.1330   1.1315   1.1301   1.1287   1.1274   1.1555
 SON VEL,M/SEC     3253.4   3261.7   3270.3   3279.2   3288.3   3297.8   3307.4   3197.0

 TRANSPORT PROPERTIES (GASES ONLY)
   CONDUCTIVITY IN UNITS OF MILLIWATTS/(CM)(K)

 VISC,MILLIPOISE  0.36981  0.37175  0.37371  0.37571  0.37773  0.37978  0.38186  0.35491

  WITH EQUILIBRIUM REACTIONS

 Cp, KJ/(KG)(K)   64.0619  66.3887  68.8039  71.3097  73.9081  76.6011  79.3908  46.9000
 CONDUCTIVITY     53.3394  55.6655  58.0789  60.5810  63.1732  65.8568  68.6329  36.3155
 PRANDTL NUMBER    0.4441   0.4434   0.4427   0.4422   0.4419   0.4417   0.4417   0.4583

  WITH FROZEN REACTIONS

 Cp, KJ/(KG)(K)   17.4220  17.4443  17.4668  17.4895  17.5125  17.5356  17.5590  17.2460
 CONDUCTIVITY      9.2616   9.3263   9.3919   9.4585   9.5261   9.5946   9.6640   8.7655
 PRANDTL NUMBER    0.6956   0.6953   0.6950   0.6947   0.6944   0.6941   0.6938   0.6983

 MOLE FRACTIONS

 *H               0.06936  0.07330  0.07741  0.08171  0.08618  0.09085  0.09572  0.04158
 *H2              0.93064  0.92670  0.92259  0.91829  0.91382  0.90915  0.90428  0.95842

  * THERMODYNAMIC PROPERTIES FITTED TO 20000.K

 NOTE. WEIGHT FRACTION OF FUEL IN TOTAL FUELS AND OF OXIDANT IN TOTAL OXIDANTS









               THERMODYNAMIC EQUILIBRIUM PROPERTIES AT ASSIGNED

                           TEMPERATURE AND PRESSURE

 CASE =                

             REACTANT                    WT FRACTION      ENERGY      TEMP
                                          (SEE NOTE)     KJ/KG-MOL      K  
             H2                           1.0000000         0.000      0.000

 O/F=    0.00000  %FUEL=100.000000  R,EQ.RATIO= 0.000000  PHI,EQ.RATIO= 0.000000

 THERMODYNAMIC PROPERTIES

 P, BAR           0.00540  0.00540  0.00540  0.00540  0.00540  0.00540  0.00540  0.00540
 T, K             2110.00  2120.00  2130.00  2140.00  2150.00  2160.00  2170.00  2180.00
 RHO, KG/CU M    6.0679-5 6.0309-5 5.9939-5 5.9567-5 5.9194-5 5.8821-5 5.8446-5 5.8070-5
 H, KJ/KG         33239.1  33732.7  34243.4  34772.0  35319.3  35885.9  36472.8  37080.5
 U, KJ/KG         24339.9  24778.8  25234.2  25706.6  26196.8  26705.5  27233.4  27781.4
 G, KJ/KG       -216832.7-218019.0-219207.7-220398.9-221592.5-222788.8-223987.7-225189.4
 S, KJ/(KG)(K)   118.5175 118.7508 118.9911 119.2387 119.4939 119.7568 120.0279 120.3073

 M, (1/n)           1.971    1.969    1.966    1.963    1.960    1.956    1.953    1.949
 (dLV/dLP)t      -1.01104 -1.01171 -1.01243 -1.01317 -1.01395 -1.01477 -1.01563 -1.01653
 (dLV/dLT)p        1.2859   1.3021   1.3190   1.3367   1.3550   1.3742   1.3942   1.4149
 Cp, KJ/(KG)(K)   48.5162  50.2007  51.9553  53.7821  55.6832  57.6606  59.7164  61.8525
 GAMMAs            1.1530   1.1507   1.1484   1.1462   1.1441   1.1421   1.1402   1.1384
 SON VEL,M/SEC     3203.3   3209.8   3216.5   3223.5   3230.7   3238.1   3245.7   3253.6

 TRANSPORT PROPERTIES (GASES ONLY)
   CONDUCTIVITY IN UNITS OF MILLIWATTS/(CM)(K)

 VISC,MILLIPOISE  0.35661  0.35835  0.36010  0.36188  0.36369  0.36552  0.36738  0.36927

  WITH EQUILIBRIUM REACTIONS

 Cp, KJ/(KG)(K)   48.5162  50.2007  51.9553  53.7821  55.6832  57.6606  59.7164  61.8525
 CONDUCTIVITY     37.9314  39.6172  41.3749  43.2062  45.1132  47.0976  49.1611  51.3055
 PRANDTL NUMBER    0.4561   0.4541   0.4522   0.4505   0.4489   0.4475   0.4463   0.4452

  WITH FROZEN REACTIONS

 Cp, KJ/(KG)(K)   17.2668  17.2878  17.3088  17.3300  17.3514  17.3729  17.3945  17.4164
 CONDUCTIVITY      8.8218   8.8789   8.9370   8.9960   9.0559   9.1167   9.1786   9.2413
 PRANDTL NUMBER    0.6980   0.6977   0.6974   0.6971   0.6968   0.6965   0.6962   0.6959

 MOLE FRACTIONS

 *H               0.04416  0.04688  0.04973  0.05272  0.05586  0.05915  0.06259  0.06619
 *H2              0.95584  0.95312  0.95027  0.94728  0.94414  0.94085  0.93741  0.93381

  * THERMODYNAMIC PROPERTIES FITTED TO 20000.K

 NOTE. WEIGHT FRACTION OF FUEL IN TOTAL FUELS AND OF OXIDANT IN TOTAL OXIDANTS









               THERMODYNAMIC EQUILIBRIUM PROPERTIES AT ASSIGNED

                           TEMPERATURE AND PRESSURE

 CASE =                

             REACTANT                    WT FRACTION      ENERGY      TEMP
                                          (SEE NOTE)     KJ/KG-MOL      K  
             H2                           1.0000000         0.000      0.000

 O/F=    0.00000  %FUEL=100.000000  R,EQ.RATIO= 0.000000  PHI,EQ.RATIO= 0.000000

 THERMODYNAMIC PROPERTIES

 P, BAR           0.00540  0.00540  0.00540  0.00540  0.00540  0.00540  0.00600  0.00600
 T, K             2190.00  2200.00  2210.00  2220.00  2230.00  2240.00  2100.00  2110.00
 RHO, KG/CU M    5.7692-5 5.7313-5 5.6932-5 5.6549-5 5.6164-5 5.5778-5 6.7905-5 6.7498-5
 H, KJ/KG         37710.1  38362.2  39037.8  39737.8  40463.0  41214.3  32516.6  32978.0
 U, KJ/KG         28350.0  28940.3  29552.8  30188.6  30848.4  31533.0  23680.7  24088.8
 G, KJ/KG       -226393.9-227601.3-228811.8-230025.3-231242.1-232462.2-214717.3-215895.6
 S, KJ/(KG)(K)   120.5954 120.8925 121.1989 121.5149 121.8408 122.1770 117.7304 117.9496

 M, (1/n)           1.945    1.941    1.937    1.933    1.928    1.924    1.976    1.974
 (dLV/dLP)t      -1.01746 -1.01844 -1.01947 -1.02053 -1.02164 -1.02280 -1.00987 -1.01048
 (dLV/dLT)p        1.4365   1.4590   1.4823   1.5064   1.5315   1.5575   1.2569   1.2716
 Cp, KJ/(KG)(K)   64.0711  66.3742  68.7638  71.2420  73.8106  76.4717  45.3764  46.9109
 GAMMAs            1.1366   1.1349   1.1334   1.1318   1.1304   1.1291   1.1582   1.1557
 SON VEL,M/SEC     3261.7   3270.1   3278.7   3287.6   3296.7   3306.2   3199.1   3205.2

 TRANSPORT PROPERTIES (GASES ONLY)
   CONDUCTIVITY IN UNITS OF MILLIWATTS/(CM)(K)

 VISC,MILLIPOISE  0.37118  0.37312  0.37509  0.37709  0.37911  0.38117  0.35454  0.35623

  WITH EQUILIBRIUM REACTIONS

 Cp, KJ/(KG)(K)   64.0711  66.3742  68.7638  71.2420  73.8106  76.4717  45.3764  46.9109
 CONDUCTIVITY     53.5325  55.8436  58.2403  60.7241  63.2962  65.9579  34.9172  36.4561
 PRANDTL NUMBER    0.4443   0.4435   0.4429   0.4424   0.4421   0.4419   0.4607   0.4584

  WITH FROZEN REACTIONS

 Cp, KJ/(KG)(K)   17.4384  17.4606  17.4829  17.5055  17.5283  17.5514  17.2423  17.2629
 CONDUCTIVITY      9.3050   9.3697   9.4354   9.5020   9.5696   9.6381   8.7514   8.8068
 PRANDTL NUMBER    0.6956   0.6953   0.6950   0.6947   0.6944   0.6941   0.6985   0.6983

 MOLE FRACTIONS

 *H               0.06995  0.07388  0.07799  0.08227  0.08674  0.09139  0.03949  0.04195
 *H2              0.93005  0.92612  0.92201  0.91773  0.91326  0.90861  0.96051  0.95805

  * THERMODYNAMIC PROPERTIES FITTED TO 20000.K

 NOTE. WEIGHT FRACTION OF FUEL IN TOTAL FUELS AND OF OXIDANT IN TOTAL OXIDANTS









               THERMODYNAMIC EQUILIBRIUM PROPERTIES AT ASSIGNED

                           TEMPERATURE AND PRESSURE

 CASE =                

             REACTANT                    WT FRACTION      ENERGY      TEMP
                                          (SEE NOTE)     KJ/KG-MOL      K  
             H2                           1.0000000         0.000      0.000

 O/F=    0.00000  %FUEL=100.000000  R,EQ.RATIO= 0.000000  PHI,EQ.RATIO= 0.000000

 THERMODYNAMIC PROPERTIES

 P, BAR           0.00600  0.00600  0.00600  0.00600  0.00600  0.00600  0.00600  0.00600
 T, K             2120.00  2130.00  2140.00  2150.00  2160.00  2170.00  2180.00  2190.00
 RHO, KG/CU M    6.7091-5 6.6683-5 6.6275-5 6.5866-5 6.5456-5 6.5044-5 6.4632-5 6.4217-5
 H, KJ/KG         33455.0  33948.4  34458.8  34986.8  35533.3  36098.9  36684.5  37290.7
 U, KJ/KG         24511.9  24950.7  25405.6  25877.4  26366.8  26874.5  27401.1  27947.4
 G, KJ/KG       -217076.2-218259.1-219444.4-220632.1-221822.3-223015.0-224210.5-225408.6
 S, KJ/(KG)(K)   118.1751 118.4073 118.6463 118.8925 119.1461 119.4074 119.6766 119.9540

 M, (1/n)           1.971    1.968    1.965    1.962    1.959    1.956    1.952    1.949
 (dLV/dLP)t      -1.01113 -1.01180 -1.01251 -1.01326 -1.01404 -1.01485 -1.01571 -1.01660
 (dLV/dLT)p        1.2870   1.3031   1.3199   1.3374   1.3556   1.3746   1.3944   1.4149
 Cp, KJ/(KG)(K)   48.5102  50.1761  51.9106  53.7157  55.5933  57.5453  59.5738  61.6807
 GAMMAs            1.1533   1.1509   1.1487   1.1465   1.1445   1.1425   1.1406   1.1388
 SON VEL,M/SEC     3211.5   3218.1   3224.8   3231.8   3239.0   3246.4   3254.0   3261.9

 TRANSPORT PROPERTIES (GASES ONLY)
   CONDUCTIVITY IN UNITS OF MILLIWATTS/(CM)(K)

 VISC,MILLIPOISE  0.35794  0.35967  0.36143  0.36321  0.36502  0.36685  0.36871  0.37060

  WITH EQUILIBRIUM REACTIONS

 Cp, KJ/(KG)(K)   48.5102  50.1761  51.9106  53.7157  55.5933  57.5453  59.5738  61.6807
 CONDUCTIVITY     38.0617  39.7359  41.4807  43.2978  45.1889  47.1559  49.2005  51.3243
 PRANDTL NUMBER    0.4562   0.4542   0.4523   0.4506   0.4491   0.4477   0.4464   0.4454

  WITH FROZEN REACTIONS

 Cp, KJ/(KG)(K)   17.2836  17.3044  17.3253  17.3464  17.3676  17.3890  17.4105  17.4322
 CONDUCTIVITY      8.8632   8.9204   8.9785   9.0375   9.0974   9.1583   9.2201   9.2828
 PRANDTL NUMBER    0.6980   0.6977   0.6974   0.6971   0.6968   0.6965   0.6962   0.6959

 MOLE FRACTIONS

 *H               0.04453  0.04724  0.05009  0.05307  0.05620  0.05947  0.06290  0.06648
 *H2              0.95547  0.95276  0.94991  0.94693  0.94380  0.94053  0.93710  0.93352

  * THERMODYNAMIC PROPERTIES FITTED TO 20000.K

 NOTE. WEIGHT FRACTION OF FUEL IN TOTAL FUELS AND OF OXIDANT IN TOTAL OXIDANTS









               THERMODYNAMIC EQUILIBRIUM PROPERTIES AT ASSIGNED

                           TEMPERATURE AND PRESSURE

 CASE =                

             REACTANT                    WT FRACTION      ENERGY      TEMP
                                          (SEE NOTE)     KJ/KG-MOL      K  
             H2                           1.0000000         0.000      0.000

 O/F=    0.00000  %FUEL=100.000000  R,EQ.RATIO= 0.000000  PHI,EQ.RATIO= 0.000000

 THERMODYNAMIC PROPERTIES

 P, BAR           0.00600  0.00600  0.00600  0.00600  0.00600  0.00670  0.00670  0.00670
 T, K             2200.00  2210.00  2220.00  2230.00  2240.00  2100.00  2110.00  2120.00
 RHO, KG/CU M    6.3802-5 6.3384-5 6.2965-5 6.2544-5 6.2120-5 7.5907-5 7.5458-5 7.5008-5
 H, KJ/KG         37918.4  38568.3  39241.4  39938.4  40660.3  32272.9  32718.8  33179.5
 U, KJ/KG         28514.2  29102.2  29712.3  30345.2  31001.7  23446.3  23839.6  24247.1
 G, KJ/KG       -226609.6-227813.4-229020.3-230230.2-231443.4-213742.7-214915.3-216090.0
 S, KJ/(KG)(K)   120.2400 120.5347 120.8386 121.1519 121.4749 117.1503 117.3621 117.5799

 M, (1/n)           1.945    1.941    1.937    1.933    1.928    1.978    1.976    1.973
 (dLV/dLP)t      -1.01753 -1.01851 -1.01952 -1.02058 -1.02168 -1.00935 -1.00993 -1.01054
 (dLV/dLT)p        1.4363   1.4585   1.4816   1.5055   1.5303   1.2434   1.2573   1.2719
 Cp, KJ/(KG)(K)   63.8679  66.1375  68.4913  70.9313  73.4595  43.8641  45.3175  46.8322
 GAMMAs            1.1371   1.1354   1.1338   1.1324   1.1309   1.1611   1.1586   1.1561
 SON VEL,M/SEC     3270.0   3278.4   3287.0   3295.9   3305.0   3201.4   3207.4   3213.5

 TRANSPORT PROPERTIES (GASES ONLY)
   CONDUCTIVITY IN UNITS OF MILLIWATTS/(CM)(K)

 VISC,MILLIPOISE  0.37251  0.37445  0.37642  0.37841  0.38043  0.35418  0.35584  0.35753

  WITH EQUILIBRIUM REACTIONS

 Cp, KJ/(KG)(K)   63.8679  66.1375  68.4913  70.9313  73.4595  43.8641  45.3175  46.8322
 CONDUCTIVITY     53.5288  55.8157  58.1864  60.6421  63.1842  33.5264  34.9883  36.5138
 PRANDTL NUMBER    0.4445   0.4437   0.4431   0.4426   0.4423   0.4634   0.4609   0.4586

  WITH FROZEN REACTIONS

 Cp, KJ/(KG)(K)   17.4541  17.4761  17.4984  17.5208  17.5434  17.2385  17.2589  17.2794
 CONDUCTIVITY      9.3465   9.4112   9.4768   9.5433   9.6108   8.7372   8.7919   8.8474
 PRANDTL NUMBER    0.6956   0.6953   0.6950   0.6947   0.6944   0.6988   0.6985   0.6983

 MOLE FRACTIONS

 *H               0.07023  0.07414  0.07822  0.08248  0.08692  0.03741  0.03974  0.04219
 *H2              0.92977  0.92586  0.92178  0.91752  0.91308  0.96259  0.96026  0.95781

  * THERMODYNAMIC PROPERTIES FITTED TO 20000.K

 NOTE. WEIGHT FRACTION OF FUEL IN TOTAL FUELS AND OF OXIDANT IN TOTAL OXIDANTS









               THERMODYNAMIC EQUILIBRIUM PROPERTIES AT ASSIGNED

                           TEMPERATURE AND PRESSURE

 CASE =                

             REACTANT                    WT FRACTION      ENERGY      TEMP
                                          (SEE NOTE)     KJ/KG-MOL      K  
             H2                           1.0000000         0.000      0.000

 O/F=    0.00000  %FUEL=100.000000  R,EQ.RATIO= 0.000000  PHI,EQ.RATIO= 0.000000

 THERMODYNAMIC PROPERTIES

 P, BAR           0.00670  0.00670  0.00670  0.00670  0.00670  0.00670  0.00670  0.00670
 T, K             2130.00  2140.00  2150.00  2160.00  2170.00  2180.00  2190.00  2200.00
 RHO, KG/CU M    7.4558-5 7.4107-5 7.3655-5 7.3202-5 7.2749-5 7.2294-5 7.1837-5 7.1380-5
 H, KJ/KG         33655.6  34147.9  34656.9  35183.3  35727.9  36291.4  36874.4  37477.8
 U, KJ/KG         24669.3  25106.9  25560.4  26030.7  26518.2  27023.7  27547.8  28091.3
 G, KJ/KG       -217266.9-218446.1-219627.6-220811.5-221998.0-223186.9-224378.5-225572.8
 S, KJ/(KG)(K)   117.8040 118.0346 118.2719 118.5162 118.7677 119.0267 119.2936 119.5685

 M, (1/n)           1.971    1.968    1.965    1.962    1.959    1.956    1.952    1.949
 (dLV/dLP)t      -1.01119 -1.01186 -1.01257 -1.01331 -1.01408 -1.01489 -1.01574 -1.01663
 (dLV/dLT)p        1.2872   1.3031   1.3197   1.3371   1.3551   1.3739   1.3934   1.4138
 Cp, KJ/(KG)(K)   48.4100  50.0528  51.7625  53.5409  55.3898  57.3113  59.3071  61.3791
 GAMMAs            1.1537   1.1514   1.1492   1.1470   1.1450   1.1430   1.1411   1.1394
 SON VEL,M/SEC     3219.8   3226.4   3233.1   3240.1   3247.3   3254.7   3262.4   3270.2

 TRANSPORT PROPERTIES (GASES ONLY)
   CONDUCTIVITY IN UNITS OF MILLIWATTS/(CM)(K)

 VISC,MILLIPOISE  0.35924  0.36097  0.36273  0.36451  0.36632  0.36815  0.37001  0.37189

  WITH EQUILIBRIUM REACTIONS

 Cp, KJ/(KG)(K)   48.4100  50.0528  51.7625  53.5409  55.3898  57.3113  59.3071  61.3791
 CONDUCTIVITY     38.1048  39.7630  41.4902  43.2882  45.1586  47.1032  49.1236  51.2213
 PRANDTL NUMBER    0.4564   0.4544   0.4525   0.4508   0.4493   0.4479   0.4467   0.4456

  WITH FROZEN REACTIONS

 Cp, KJ/(KG)(K)   17.3000  17.3207  17.3415  17.3624  17.3835  17.4048  17.4261  17.4477
 CONDUCTIVITY      8.9037   8.9609   9.0190   9.0780   9.1379   9.1987   9.2605   9.3231
 PRANDTL NUMBER    0.6980   0.6977   0.6974   0.6972   0.6969   0.6966   0.6963   0.6960

 MOLE FRACTIONS

 *H               0.04476  0.04747  0.05030  0.05327  0.05637  0.05963  0.06303  0.06659
 *H2              0.95524  0.95253  0.94970  0.94673  0.94363  0.94037  0.93697  0.93341

  * THERMODYNAMIC PROPERTIES FITTED TO 20000.K

 NOTE. WEIGHT FRACTION OF FUEL IN TOTAL FUELS AND OF OXIDANT IN TOTAL OXIDANTS









               THERMODYNAMIC EQUILIBRIUM PROPERTIES AT ASSIGNED

                           TEMPERATURE AND PRESSURE

 CASE =                

             REACTANT                    WT FRACTION      ENERGY      TEMP
                                          (SEE NOTE)     KJ/KG-MOL      K  
             H2                           1.0000000         0.000      0.000

 O/F=    0.00000  %FUEL=100.000000  R,EQ.RATIO= 0.000000  PHI,EQ.RATIO= 0.000000

 THERMODYNAMIC PROPERTIES

 P, BAR           0.00670  0.00670  0.00670  0.00670  0.00740  0.00740  0.00740  0.00740
 T, K             2210.00  2220.00  2230.00  2240.00  2100.00  2110.00  2120.00  2130.00
 RHO, KG/CU M    7.0920-5 7.0459-5 6.9995-5 6.9530-5 8.3914-5 8.3422-5 8.2929-5 8.2437-5
 H, KJ/KG         38102.3  38748.6  39417.7  40110.3  32064.7  32497.2  32944.0  33405.4
 U, KJ/KG         28655.0  29239.5  29845.6  30474.2  23246.1  23626.7  24020.7  24428.8
 G, KJ/KG       -226769.9-227969.9-229172.8-230378.8-212866.0-214033.4-215202.8-216374.4
 S, KJ/(KG)(K)   119.8517 120.1435 120.4442 120.7541 116.6337 116.8392 117.0504 117.2675

 M, (1/n)           1.945    1.941    1.937    1.933    1.980    1.978    1.975    1.973
 (dLV/dLP)t      -1.01755 -1.01852 -1.01953 -1.02058 -1.00890 -1.00946 -1.01004 -1.01066
 (dLV/dLT)p        1.4349   1.4568   1.4796   1.5032   1.2318   1.2451   1.2590   1.2736
 Cp, KJ/(KG)(K)   63.5293  65.7595  68.0715  70.4672  42.5716  43.9556  45.3980  46.9005
 GAMMAs            1.1376   1.1360   1.1344   1.1330   1.1638   1.1612   1.1586   1.1562
 SON VEL,M/SEC     3278.4   3286.7   3295.3   3304.2   3203.6   3209.4   3215.4   3221.6

 TRANSPORT PROPERTIES (GASES ONLY)
   CONDUCTIVITY IN UNITS OF MILLIWATTS/(CM)(K)

 VISC,MILLIPOISE  0.37380  0.37574  0.37770  0.37969  0.35387  0.35551  0.35718  0.35887

  WITH EQUILIBRIUM REACTIONS

 Cp, KJ/(KG)(K)   63.5293  65.7595  68.0715  70.4672  42.5716  43.9556  45.3980  46.9005
 CONDUCTIVITY     53.3980  55.6550  57.9937  60.4155  32.3352  33.7311  35.1878  36.7072
 PRANDTL NUMBER    0.4447   0.4440   0.4433   0.4429   0.4659   0.4633   0.4608   0.4585

  WITH FROZEN REACTIONS

 Cp, KJ/(KG)(K)   17.4694  17.4913  17.5133  17.5356  17.2354  17.2555  17.2758  17.2962
 CONDUCTIVITY      9.3867   9.4513   9.5168   9.5832   8.7251   8.7790   8.8338   8.8894
 PRANDTL NUMBER    0.6957   0.6954   0.6951   0.6948   0.6990   0.6988   0.6985   0.6983

 MOLE FRACTIONS

 *H               0.07031  0.07419  0.07823  0.08245  0.03563  0.03785  0.04019  0.04264
 *H2              0.92969  0.92581  0.92177  0.91755  0.96437  0.96215  0.95981  0.95736

  * THERMODYNAMIC PROPERTIES FITTED TO 20000.K

 NOTE. WEIGHT FRACTION OF FUEL IN TOTAL FUELS AND OF OXIDANT IN TOTAL OXIDANTS









               THERMODYNAMIC EQUILIBRIUM PROPERTIES AT ASSIGNED

                           TEMPERATURE AND PRESSURE

 CASE =                

             REACTANT                    WT FRACTION      ENERGY      TEMP
                                          (SEE NOTE)     KJ/KG-MOL      K  
             H2                           1.0000000         0.000      0.000

 O/F=    0.00000  %FUEL=100.000000  R,EQ.RATIO= 0.000000  PHI,EQ.RATIO= 0.000000

 THERMODYNAMIC PROPERTIES

 P, BAR           0.00740  0.00740  0.00740  0.00740  0.00740  0.00740  0.00740  0.00740
 T, K             2140.00  2150.00  2160.00  2170.00  2180.00  2190.00  2200.00  2210.00
 RHO, KG/CU M    8.1943-5 8.1450-5 8.0955-5 8.0459-5 7.9962-5 7.9464-5 7.8964-5 7.8463-5
 H, KJ/KG         33882.2  34374.9  34884.3  35410.9  35955.4  36518.6  37101.2  37703.9
 U, KJ/KG         24851.6  25289.5  25743.4  26213.7  26701.1  27206.3  27729.9  28272.7
 G, KJ/KG       -217548.2-218724.2-219902.6-221083.4-222266.6-223452.4-224640.8-225831.9
 S, KJ/(KG)(K)   117.4908 117.7205 117.9569 118.2001 118.4505 118.7083 118.9737 119.2470

 M, (1/n)           1.970    1.968    1.965    1.962    1.959    1.955    1.952    1.948
 (dLV/dLP)t      -1.01130 -1.01197 -1.01268 -1.01342 -1.01419 -1.01500 -1.01585 -1.01673
 (dLV/dLT)p        1.2888   1.3046   1.3212   1.3384   1.3563   1.3750   1.3944   1.4146
 Cp, KJ/(KG)(K)   48.4649  50.0929  51.7864  53.5472  55.3771  57.2778  59.2512  61.2992
 GAMMAs            1.1538   1.1516   1.1494   1.1473   1.1453   1.1433   1.1415   1.1397
 SON VEL,M/SEC     3228.0   3234.6   3241.3   3248.3   3255.5   3263.0   3270.6   3278.5

 TRANSPORT PROPERTIES (GASES ONLY)
   CONDUCTIVITY IN UNITS OF MILLIWATTS/(CM)(K)

 VISC,MILLIPOISE  0.36058  0.36232  0.36407  0.36586  0.36766  0.36950  0.37135  0.37324

  WITH EQUILIBRIUM REACTIONS

 Cp, KJ/(KG)(K)   48.4649  50.0929  51.7864  53.5472  55.3771  57.2778  59.2512  61.2992
 CONDUCTIVITY     38.2910  39.9409  41.6587  43.4459  45.3044  47.2356  49.2412  51.3227
 PRANDTL NUMBER    0.4564   0.4544   0.4526   0.4509   0.4494   0.4481   0.4468   0.4458

  WITH FROZEN REACTIONS

 Cp, KJ/(KG)(K)   17.3167  17.3373  17.3580  17.3788  17.3998  17.4209  17.4422  17.4636
 CONDUCTIVITY      8.9458   9.0031   9.0612   9.1203   9.1802   9.2411   9.3028   9.3655
 PRANDTL NUMBER    0.6980   0.6977   0.6974   0.6971   0.6969   0.6966   0.6963   0.6960

 MOLE FRACTIONS

 *H               0.04522  0.04792  0.05075  0.05372  0.05682  0.06007  0.06347  0.06702
 *H2              0.95478  0.95208  0.94925  0.94628  0.94318  0.93993  0.93653  0.93298

  * THERMODYNAMIC PROPERTIES FITTED TO 20000.K

 NOTE. WEIGHT FRACTION OF FUEL IN TOTAL FUELS AND OF OXIDANT IN TOTAL OXIDANTS









               THERMODYNAMIC EQUILIBRIUM PROPERTIES AT ASSIGNED

                           TEMPERATURE AND PRESSURE

 CASE =                

             REACTANT                    WT FRACTION      ENERGY      TEMP
                                          (SEE NOTE)     KJ/KG-MOL      K  
             H2                           1.0000000         0.000      0.000

 O/F=    0.00000  %FUEL=100.000000  R,EQ.RATIO= 0.000000  PHI,EQ.RATIO= 0.000000

 THERMODYNAMIC PROPERTIES

 P, BAR           0.00740  0.00740  0.00740  0.00825  0.00825  0.00825  0.00825  0.00825
 T, K             2220.00  2230.00  2240.00  2100.00  2110.00  2120.00  2130.00  2140.00
 RHO, KG/CU M    7.7960-5 7.7455-5 7.6948-5 9.3641-5 9.3097-5 9.2553-5 9.2009-5 9.1465-5
 H, KJ/KG         38327.5  38972.6  39640.3  31848.3  32267.1  32699.3  33145.5  33606.2
 U, KJ/KG         28835.4  29418.7  30023.3  23038.1  23405.4  23785.6  24179.0  24586.4
 G, KJ/KG       -227025.8-228222.5-229422.2-211907.6-213069.3-214233.1-215398.9-216566.8
 S, KJ/(KG)(K)   119.5285 119.8185 120.1172 116.0743 116.2732 116.4776 116.6875 116.9033

 M, (1/n)           1.945    1.941    1.937    1.982    1.980    1.977    1.975    1.973
 (dLV/dLP)t      -1.01766 -1.01862 -1.01962 -1.00844 -1.00897 -1.00952 -1.01010 -1.01071
 (dLV/dLT)p        1.4356   1.4573   1.4798   1.2197   1.2324   1.2456   1.2594   1.2739
 Cp, KJ/(KG)(K)   63.4234  65.6257  67.9080  41.2289  42.5407  43.9079  45.3321  46.8149
 GAMMAs            1.1380   1.1364   1.1349   1.1668   1.1641   1.1615   1.1590   1.1566
 SON VEL,M/SEC     3286.6   3295.0   3303.6   3206.2   3211.9   3217.7   3223.7   3229.9

 TRANSPORT PROPERTIES (GASES ONLY)
   CONDUCTIVITY IN UNITS OF MILLIWATTS/(CM)(K)

 VISC,MILLIPOISE  0.37515  0.37709  0.37905  0.35354  0.35516  0.35681  0.35848  0.36017

  WITH EQUILIBRIUM REACTIONS

 Cp, KJ/(KG)(K)   63.4234  65.6257  67.9080  41.2289  42.5407  43.9079  45.3321  46.8149
 CONDUCTIVITY     53.4816  55.7192  58.0369  31.0954  32.4223  33.8072  35.2519  36.7579
 PRANDTL NUMBER    0.4449   0.4441   0.4435   0.4688   0.4660   0.4634   0.4610   0.4587

  WITH FROZEN REACTIONS

 Cp, KJ/(KG)(K)   17.4852  17.5070  17.5289  17.2321  17.2520  17.2721  17.2923  17.3125
 CONDUCTIVITY      9.4291   9.4937   9.5591   8.7123   8.7655   8.8195   8.8743   8.9299
 PRANDTL NUMBER    0.6957   0.6954   0.6951   0.6993   0.6990   0.6988   0.6985   0.6983

 MOLE FRACTIONS

 *H               0.07072  0.07459  0.07862  0.03378  0.03589  0.03810  0.04043  0.04288
 *H2              0.92928  0.92541  0.92138  0.96622  0.96411  0.96190  0.95957  0.95712

  * THERMODYNAMIC PROPERTIES FITTED TO 20000.K

 NOTE. WEIGHT FRACTION OF FUEL IN TOTAL FUELS AND OF OXIDANT IN TOTAL OXIDANTS









               THERMODYNAMIC EQUILIBRIUM PROPERTIES AT ASSIGNED

                           TEMPERATURE AND PRESSURE

 CASE =                

             REACTANT                    WT FRACTION      ENERGY      TEMP
                                          (SEE NOTE)     KJ/KG-MOL      K  
             H2                           1.0000000         0.000      0.000

 O/F=    0.00000  %FUEL=100.000000  R,EQ.RATIO= 0.000000  PHI,EQ.RATIO= 0.000000

 THERMODYNAMIC PROPERTIES

 P, BAR           0.00825  0.00825  0.00825  0.00825  0.00825  0.00825  0.00825  0.00825
 T, K             2150.00  2160.00  2170.00  2180.00  2190.00  2200.00  2210.00  2220.00
 RHO, KG/CU M    9.0921-5 9.0375-5 8.9829-5 8.9281-5 8.8733-5 8.8183-5 8.7631-5 8.7078-5
 H, KJ/KG         34082.0  34573.5  35081.5  35606.4  36149.0  36710.0  37290.1  37889.9
 U, KJ/KG         25008.1  25444.9  25897.3  26366.0  26851.5  27354.4  27875.6  28415.6
 G, KJ/KG       -217737.0-218909.4-220084.1-221261.1-222440.7-223622.7-224807.4-225994.7
 S, KJ/(KG)(K)   117.1251 117.3532 117.5878 117.8292 118.0775 118.3331 118.5961 118.8669

 M, (1/n)           1.970    1.967    1.965    1.962    1.958    1.955    1.952    1.948
 (dLV/dLP)t      -1.01135 -1.01203 -1.01273 -1.01346 -1.01423 -1.01504 -1.01588 -1.01676
 (dLV/dLT)p        1.2889   1.3046   1.3210   1.3380   1.3558   1.3742   1.3934   1.4134
 Cp, KJ/(KG)(K)   48.3582  49.9635  51.6325  53.3671  55.1690  57.0398  58.9813  60.9953
 GAMMAs            1.1542   1.1520   1.1498   1.1478   1.1458   1.1438   1.1420   1.1403
 SON VEL,M/SEC     3236.3   3242.9   3249.7   3256.7   3263.9   3271.3   3278.9   3286.8

 TRANSPORT PROPERTIES (GASES ONLY)
   CONDUCTIVITY IN UNITS OF MILLIWATTS/(CM)(K)

 VISC,MILLIPOISE  0.36188  0.36362  0.36537  0.36715  0.36896  0.37079  0.37265  0.37453

  WITH EQUILIBRIUM REACTIONS

 Cp, KJ/(KG)(K)   48.3582  49.9635  51.6325  53.3671  55.1690  57.0398  58.9813  60.9953
 CONDUCTIVITY     38.3270  39.9609  41.6611  43.4294  45.2673  47.1764  49.1581  51.2140
 PRANDTL NUMBER    0.4566   0.4546   0.4528   0.4512   0.4497   0.4483   0.4471   0.4461

  WITH FROZEN REACTIONS

 Cp, KJ/(KG)(K)   17.3329  17.3534  17.3740  17.3947  17.4155  17.4365  17.4576  17.4789
 CONDUCTIVITY      8.9863   9.0436   9.1018   9.1608   9.2207   9.2815   9.3432   9.4058
 PRANDTL NUMBER    0.6980   0.6977   0.6974   0.6972   0.6969   0.6966   0.6963   0.6960

 MOLE FRACTIONS

 *H               0.04544  0.04813  0.05095  0.05390  0.05699  0.06021  0.06359  0.06711
 *H2              0.95456  0.95187  0.94905  0.94610  0.94301  0.93979  0.93641  0.93289

  * THERMODYNAMIC PROPERTIES FITTED TO 20000.K

 NOTE. WEIGHT FRACTION OF FUEL IN TOTAL FUELS AND OF OXIDANT IN TOTAL OXIDANTS









               THERMODYNAMIC EQUILIBRIUM PROPERTIES AT ASSIGNED

                           TEMPERATURE AND PRESSURE

 CASE =                

             REACTANT                    WT FRACTION      ENERGY      TEMP
                                          (SEE NOTE)     KJ/KG-MOL      K  
             H2                           1.0000000         0.000      0.000

 O/F=    0.00000  %FUEL=100.000000  R,EQ.RATIO= 0.000000  PHI,EQ.RATIO= 0.000000

 THERMODYNAMIC PROPERTIES

 P, BAR           0.00825  0.00825  0.00910  0.00910  0.00910  0.00910  0.00910  0.00910
 T, K             2230.00  2240.00  2100.00  2110.00  2120.00  2130.00  2140.00  2150.00
 RHO, KG/CU M    8.6522-5 8.5965-5 1.0337-4 1.0278-4 1.0218-4 1.0159-4 1.0099-4 1.0040-4
 H, KJ/KG         38510.2  39151.8  31663.1  32070.1  32489.8  32922.9  33369.8  33831.1
 U, KJ/KG         28975.1  29554.9  22859.9  23216.0  23584.2  23965.1  24359.2  24767.1
 G, KJ/KG       -227184.7-228377.6-211044.0-212200.7-213359.4-214520.1-215682.8-216847.7
 S, KJ/(KG)(K)   119.1457 119.4328 115.5748 115.7681 115.9666 116.1704 116.3797 116.5948

 M, (1/n)           1.945    1.941    1.983    1.981    1.979    1.977    1.975    1.972
 (dLV/dLP)t      -1.01767 -1.01863 -1.00804 -1.00855 -1.00908 -1.00963 -1.01021 -1.01082
 (dLV/dLT)p        1.4341   1.4555   1.2094   1.2215   1.2341   1.2473   1.2610   1.2754
 Cp, KJ/(KG)(K)   63.0835  65.2475  40.0788  41.3288  42.6316  43.9887  45.4017  46.8722
 GAMMAs            1.1386   1.1370   1.1695   1.1668   1.1641   1.1616   1.1591   1.1567
 SON VEL,M/SEC     3294.9   3303.3   3208.6   3214.2   3219.8   3225.7   3231.7   3238.0

 TRANSPORT PROPERTIES (GASES ONLY)
   CONDUCTIVITY IN UNITS OF MILLIWATTS/(CM)(K)

 VISC,MILLIPOISE  0.37644  0.37837  0.35326  0.35487  0.35649  0.35814  0.35981  0.36151

  WITH EQUILIBRIUM REACTIONS

 Cp, KJ/(KG)(K)   63.0835  65.2475  40.0788  41.3288  42.6316  43.9887  45.4017  46.8722
 CONDUCTIVITY     53.3454  55.5538  30.0315  31.2991  32.6223  34.0026  35.4417  36.9412
 PRANDTL NUMBER    0.4452   0.4444   0.4714   0.4686   0.4659   0.4633   0.4609   0.4587

  WITH FROZEN REACTIONS

 Cp, KJ/(KG)(K)   17.5003  17.5219  17.2292  17.2490  17.2689  17.2889  17.3090  17.3292
 CONDUCTIVITY      9.4693   9.5337   8.7013   8.7539   8.8072   8.8613   8.9162   8.9719
 PRANDTL NUMBER    0.6957   0.6954   0.6995   0.6992   0.6990   0.6988   0.6985   0.6982

 MOLE FRACTIONS

 *H               0.07079  0.07462  0.03219  0.03420  0.03631  0.03854  0.04087  0.04332
 *H2              0.92921  0.92538  0.96781  0.96580  0.96369  0.96146  0.95913  0.95668

  * THERMODYNAMIC PROPERTIES FITTED TO 20000.K

 NOTE. WEIGHT FRACTION OF FUEL IN TOTAL FUELS AND OF OXIDANT IN TOTAL OXIDANTS









               THERMODYNAMIC EQUILIBRIUM PROPERTIES AT ASSIGNED

                           TEMPERATURE AND PRESSURE

 CASE =                

             REACTANT                    WT FRACTION      ENERGY      TEMP
                                          (SEE NOTE)     KJ/KG-MOL      K  
             H2                           1.0000000         0.000      0.000

 O/F=    0.00000  %FUEL=100.000000  R,EQ.RATIO= 0.000000  PHI,EQ.RATIO= 0.000000

 THERMODYNAMIC PROPERTIES

 P, BAR           0.00910  0.00910  0.00910  0.00910  0.00910  0.00910  0.00910  0.00910
 T, K             2160.00  2170.00  2180.00  2190.00  2200.00  2210.00  2220.00  2230.00
 RHO, KG/CU M    9.9801-5 9.9205-5 9.8607-5 9.8008-5 9.7408-5 9.6807-5 9.6203-5 9.5598-5
 H, KJ/KG         34307.4  34799.3  35307.5  35832.5  36374.9  36935.6  37515.1  38114.1
 U, KJ/KG         25189.3  25626.4  26078.9  26547.5  27032.8  27535.4  28056.0  28595.1
 G, KJ/KG       -218014.7-219184.0-220355.6-221529.6-222706.0-223884.9-225066.4-226250.5
 S, KJ/(KG)(K)   116.8158 117.0430 117.2766 117.5169 117.7640 118.0183 118.2799 118.5492

 M, (1/n)           1.970    1.967    1.964    1.961    1.958    1.955    1.951    1.948
 (dLV/dLP)t      -1.01146 -1.01214 -1.01284 -1.01357 -1.01434 -1.01515 -1.01598 -1.01686
 (dLV/dLT)p        1.2904   1.3060   1.3223   1.3393   1.3569   1.3752   1.3943   1.4141
 Cp, KJ/(KG)(K)   48.4018  49.9923  51.6452  53.3622  55.1451  56.9953  58.9147  60.9049
 GAMMAs            1.1544   1.1522   1.1501   1.1480   1.1460   1.1442   1.1424   1.1406
 SON VEL,M/SEC     3244.4   3251.0   3257.8   3264.8   3272.1   3279.5   3287.2   3295.1

 TRANSPORT PROPERTIES (GASES ONLY)
   CONDUCTIVITY IN UNITS OF MILLIWATTS/(CM)(K)

 VISC,MILLIPOISE  0.36322  0.36496  0.36671  0.36850  0.37030  0.37214  0.37399  0.37588

  WITH EQUILIBRIUM REACTIONS

 Cp, KJ/(KG)(K)   48.4018  49.9923  51.6452  53.3622  55.1451  56.9953  58.9147  60.9049
 CONDUCTIVITY     38.5027  40.1280  41.8185  43.5758  45.4015  47.2971  49.2639  51.3035
 PRANDTL NUMBER    0.4566   0.4547   0.4529   0.4513   0.4498   0.4484   0.4473   0.4462

  WITH FROZEN REACTIONS

 Cp, KJ/(KG)(K)   17.3494  17.3698  17.3903  17.4109  17.4316  17.4525  17.4735  17.4946
 CONDUCTIVITY      9.0284   9.0857   9.1439   9.2030   9.2629   9.3237   9.3855   9.4481
 PRANDTL NUMBER    0.6980   0.6977   0.6974   0.6972   0.6969   0.6966   0.6963   0.6960

 MOLE FRACTIONS

 *H               0.04588  0.04857  0.05139  0.05434  0.05742  0.06064  0.06400  0.06752
 *H2              0.95412  0.95143  0.94861  0.94566  0.94258  0.93936  0.93600  0.93248

  * THERMODYNAMIC PROPERTIES FITTED TO 20000.K

 NOTE. WEIGHT FRACTION OF FUEL IN TOTAL FUELS AND OF OXIDANT IN TOTAL OXIDANTS









               THERMODYNAMIC EQUILIBRIUM PROPERTIES AT ASSIGNED

                           TEMPERATURE AND PRESSURE

 CASE =                

             REACTANT                    WT FRACTION      ENERGY      TEMP
                                          (SEE NOTE)     KJ/KG-MOL      K  
             H2                           1.0000000         0.000      0.000

 O/F=    0.00000  %FUEL=100.000000  R,EQ.RATIO= 0.000000  PHI,EQ.RATIO= 0.000000

 THERMODYNAMIC PROPERTIES

 P, BAR           0.00910  0.01000  0.01000  0.01000  0.01000  0.01000  0.01000  0.01000
 T, K             2240.00  2100.00  2110.00  2120.00  2130.00  2140.00  2150.00  2160.00
 RHO, KG/CU M    9.4991-5 1.1368-4 1.1303-4 1.1238-4 1.1173-4 1.1109-4 1.1044-4 1.0979-4
 H, KJ/KG         38733.4  31493.3  31889.4  32297.8  32718.8  33153.1  33601.1  34063.5
 U, KJ/KG         29153.6  22696.7  23042.3  23399.6  23769.0  24151.0  24546.2  24955.0
 G, KJ/KG       -227437.4-210214.1-211366.0-212519.8-213675.6-214833.4-215993.3-217155.2
 S, KJ/(KG)(K)   118.8262 115.0987 115.2869 115.4800 115.6781 115.8816 116.0904 116.3050

 M, (1/n)           1.944    1.985    1.983    1.981    1.979    1.977    1.974    1.972
 (dLV/dLP)t      -1.01777 -1.00768 -1.00816 -1.00866 -1.00920 -1.00975 -1.01034 -1.01095
 (dLV/dLT)p        1.4346   1.1999   1.2114   1.2235   1.2361   1.2493   1.2630   1.2773
 Cp, KJ/(KG)(K)   62.9676  39.0245  40.2179  41.4616  42.7571  44.1060  45.5098  46.9701
 GAMMAs            1.1390   1.1721   1.1694   1.1667   1.1641   1.1616   1.1591   1.1568
 SON VEL,M/SEC     3303.2   3211.1   3216.5   3222.0   3227.8   3233.7   3239.7   3246.0

 TRANSPORT PROPERTIES (GASES ONLY)
   CONDUCTIVITY IN UNITS OF MILLIWATTS/(CM)(K)

 VISC,MILLIPOISE  0.37778  0.35300  0.35459  0.35620  0.35783  0.35949  0.36116  0.36285

  WITH EQUILIBRIUM REACTIONS

 Cp, KJ/(KG)(K)   62.9676  39.0245  40.2179  41.4616  42.7571  44.1060  45.5098  46.9701
 CONDUCTIVITY     53.4172  29.0547  30.2678  31.5340  32.8551  34.2325  35.6679  37.1629
 PRANDTL NUMBER    0.4453   0.4741   0.4712   0.4683   0.4657   0.4632   0.4608   0.4586

  WITH FROZEN REACTIONS

 Cp, KJ/(KG)(K)   17.5159  17.2266  17.2463  17.2660  17.2859  17.3058  17.3257  17.3458
 CONDUCTIVITY      9.5116   8.6912   8.7432   8.7959   8.8493   8.9035   8.9585   9.0143
 PRANDTL NUMBER    0.6957   0.6997   0.6994   0.6992   0.6990   0.6987   0.6985   0.6982

 MOLE FRACTIONS

 *H               0.07118  0.03073  0.03265  0.03467  0.03679  0.03902  0.04136  0.04382
 *H2              0.92882  0.96927  0.96735  0.96533  0.96321  0.96098  0.95864  0.95618

  * THERMODYNAMIC PROPERTIES FITTED TO 20000.K

 NOTE. WEIGHT FRACTION OF FUEL IN TOTAL FUELS AND OF OXIDANT IN TOTAL OXIDANTS









               THERMODYNAMIC EQUILIBRIUM PROPERTIES AT ASSIGNED

                           TEMPERATURE AND PRESSURE

 CASE =                

             REACTANT                    WT FRACTION      ENERGY      TEMP
                                          (SEE NOTE)     KJ/KG-MOL      K  
             H2                           1.0000000         0.000      0.000

 O/F=    0.00000  %FUEL=100.000000  R,EQ.RATIO= 0.000000  PHI,EQ.RATIO= 0.000000

 THERMODYNAMIC PROPERTIES

 P, BAR           0.01000  0.01000  0.01000  0.01000  0.01000  0.01000  0.01000  0.01000
 T, K             2170.00  2180.00  2190.00  2200.00  2210.00  2220.00  2230.00  2240.00
 RHO, KG/CU M    1.0914-4 1.0849-4 1.0784-4 1.0718-4 1.0653-4 1.0587-4 1.0522-4 1.0456-4
 H, KJ/KG         34540.7  35033.5  35542.3  36067.8  36610.6  37171.5  37751.0  38349.9
 U, KJ/KG         25378.0  25815.8  26269.0  26738.0  27223.6  27726.3  28246.8  28785.7
 G, KJ/KG       -218319.4-219485.8-220654.4-221825.5-222999.0-224174.9-225353.4-226534.6
 S, KJ/(KG)(K)   116.5254 116.7519 116.9848 117.2242 117.4704 117.7236 117.9841 118.2520

 M, (1/n)           1.969    1.966    1.964    1.961    1.957    1.954    1.951    1.947
 (dLV/dLP)t      -1.01159 -1.01226 -1.01297 -1.01370 -1.01447 -1.01527 -1.01611 -1.01698
 (dLV/dLT)p        1.2923   1.3079   1.3241   1.3409   1.3585   1.3767   1.3957   1.4153
 Cp, KJ/(KG)(K)   48.4884  50.0664  51.7057  53.4077  55.1742  57.0068  58.9070  60.8765
 GAMMAs            1.1545   1.1523   1.1502   1.1482   1.1463   1.1444   1.1426   1.1409
 SON VEL,M/SEC     3252.5   3259.1   3266.0   3273.0   3280.3   3287.7   3295.4   3303.3

 TRANSPORT PROPERTIES (GASES ONLY)
   CONDUCTIVITY IN UNITS OF MILLIWATTS/(CM)(K)

 VISC,MILLIPOISE  0.36457  0.36631  0.36807  0.36985  0.37166  0.37350  0.37535  0.37724

  WITH EQUILIBRIUM REACTIONS

 Cp, KJ/(KG)(K)   48.4884  50.0664  51.7057  53.4077  55.1742  57.0068  58.9070  60.8765
 CONDUCTIVITY     38.7189  40.3377  42.0207  43.7694  45.5854  47.4700  49.4246  51.4507
 PRANDTL NUMBER    0.4566   0.4547   0.4529   0.4513   0.4498   0.4485   0.4474   0.4463

  WITH FROZEN REACTIONS

 Cp, KJ/(KG)(K)   17.3660  17.3863  17.4066  17.4271  17.4478  17.4685  17.4894  17.5105
 CONDUCTIVITY      9.0709   9.1283   9.1866   9.2457   9.3057   9.3666   9.4284   9.4910
 PRANDTL NUMBER    0.6980   0.6977   0.6974   0.6971   0.6968   0.6966   0.6963   0.6960

 MOLE FRACTIONS

 *H               0.04639  0.04908  0.05190  0.05485  0.05793  0.06115  0.06451  0.06802
 *H2              0.95361  0.95092  0.94810  0.94515  0.94207  0.93885  0.93549  0.93198

  * THERMODYNAMIC PROPERTIES FITTED TO 20000.K

 NOTE. WEIGHT FRACTION OF FUEL IN TOTAL FUELS AND OF OXIDANT IN TOTAL OXIDANTS









               THERMODYNAMIC EQUILIBRIUM PROPERTIES AT ASSIGNED

                           TEMPERATURE AND PRESSURE

 CASE =                

             REACTANT                    WT FRACTION      ENERGY      TEMP
                                          (SEE NOTE)     KJ/KG-MOL      K  
             H2                           1.0000000         0.000      0.000

 O/F=    0.00000  %FUEL=100.000000  R,EQ.RATIO= 0.000000  PHI,EQ.RATIO= 0.000000

 THERMODYNAMIC PROPERTIES

 P, BAR           0.01100  0.01100  0.01100  0.01100  0.01100  0.01100  0.01100  0.01100
 T, K             2100.00  2110.00  2120.00  2130.00  2140.00  2150.00  2160.00  2170.00
 RHO, KG/CU M    1.2514-4 1.2443-4 1.2372-4 1.2301-4 1.2230-4 1.2160-4 1.2089-4 1.2018-4
 H, KJ/KG         31329.6  31715.3  32112.7  32522.2  32944.3  33379.5  33828.4  34291.5
 U, KJ/KG         22539.3  22874.9  23221.7  23580.0  23950.3  24333.2  24729.2  25138.6
 G, KJ/KG       -209376.0-210523.1-211672.1-212823.0-213975.8-215130.7-216287.6-217446.6
 S, KJ/(KG)(K)   114.6217 114.8049 114.9928 115.1855 115.3832 115.5861 115.7944 116.0083

 M, (1/n)           1.986    1.984    1.983    1.980    1.978    1.976    1.974    1.971
 (dLV/dLP)t      -1.00733 -1.00779 -1.00827 -1.00878 -1.00931 -1.00987 -1.01045 -1.01106
 (dLV/dLT)p        1.1907   1.2018   1.2133   1.2253   1.2379   1.2510   1.2647   1.2790
 Cp, KJ/(KG)(K)   38.0083  39.1470  40.3338  41.5699  42.8570  44.1965  45.5899  47.0387
 GAMMAs            1.1748   1.1720   1.1693   1.1667   1.1641   1.1616   1.1592   1.1569
 SON VEL,M/SEC     3213.6   3218.9   3224.3   3229.9   3235.7   3241.6   3247.8   3254.1

 TRANSPORT PROPERTIES (GASES ONLY)
   CONDUCTIVITY IN UNITS OF MILLIWATTS/(CM)(K)

 VISC,MILLIPOISE  0.35275  0.35432  0.35592  0.35753  0.35917  0.36082  0.36250  0.36419

  WITH EQUILIBRIUM REACTIONS

 Cp, KJ/(KG)(K)   38.0083  39.1470  40.3338  41.5699  42.8570  44.1965  45.5899  47.0387
 CONDUCTIVITY     28.1118  29.2720  30.4833  31.7470  33.0647  34.4380  35.8684  37.3575
 PRANDTL NUMBER    0.4769   0.4739   0.4709   0.4682   0.4655   0.4631   0.4607   0.4586

  WITH FROZEN REACTIONS

 Cp, KJ/(KG)(K)   17.2241  17.2436  17.2632  17.2829  17.3026  17.3224  17.3423  17.3623
 CONDUCTIVITY      8.6814   8.7327   8.7848   8.8376   8.8912   8.9455   9.0006   9.0565
 PRANDTL NUMBER    0.6999   0.6996   0.6994   0.6992   0.6990   0.6987   0.6985   0.6982

 MOLE FRACTIONS

 *H               0.02932  0.03115  0.03308  0.03511  0.03724  0.03948  0.04182  0.04428
 *H2              0.97068  0.96885  0.96692  0.96489  0.96276  0.96052  0.95818  0.95572

  * THERMODYNAMIC PROPERTIES FITTED TO 20000.K

 NOTE. WEIGHT FRACTION OF FUEL IN TOTAL FUELS AND OF OXIDANT IN TOTAL OXIDANTS









               THERMODYNAMIC EQUILIBRIUM PROPERTIES AT ASSIGNED

                           TEMPERATURE AND PRESSURE

 CASE =                

             REACTANT                    WT FRACTION      ENERGY      TEMP
                                          (SEE NOTE)     KJ/KG-MOL      K  
             H2                           1.0000000         0.000      0.000

 O/F=    0.00000  %FUEL=100.000000  R,EQ.RATIO= 0.000000  PHI,EQ.RATIO= 0.000000

 THERMODYNAMIC PROPERTIES

 P, BAR           0.01100  0.01100  0.01100  0.01100  0.01100  0.01100  0.01100  0.01200
 T, K             2180.00  2190.00  2200.00  2210.00  2220.00  2230.00  2240.00  2100.00
 RHO, KG/CU M    1.1947-4 1.1876-4 1.1805-4 1.1734-4 1.1663-4 1.1591-4 1.1519-4 1.3660-4
 H, KJ/KG         34769.3  35262.5  35771.7  36297.4  36840.3  37401.0  37980.1  31186.8
 U, KJ/KG         25562.2  26000.4  26453.8  26923.0  27408.5  27911.0  28431.1  22402.0
 G, KJ/KG       -218607.7-219771.1-220936.8-222104.9-223275.3-224448.3-225623.8-208611.4
 S, KJ/(KG)(K)   116.2280 116.4537 116.6857 116.9241 117.1692 117.4212 117.6803 114.1896

 M, (1/n)           1.969    1.966    1.963    1.960    1.957    1.954    1.950    1.988
 (dLV/dLP)t      -1.01171 -1.01238 -1.01308 -1.01382 -1.01458 -1.01539 -1.01622 -1.00702
 (dLV/dLT)p        1.2939   1.3094   1.3255   1.3423   1.3598   1.3779   1.3967   1.1827
 Cp, KJ/(KG)(K)   48.5444  50.1085  51.7327  53.4184  55.1671  56.9805  58.8601  37.1218
 GAMMAs            1.1547   1.1525   1.1504   1.1484   1.1465   1.1447   1.1429   1.1773
 SON VEL,M/SEC     3260.5   3267.2   3274.1   3281.2   3288.4   3295.9   3303.6   3216.0

 TRANSPORT PROPERTIES (GASES ONLY)
   CONDUCTIVITY IN UNITS OF MILLIWATTS/(CM)(K)

 VISC,MILLIPOISE  0.36591  0.36765  0.36941  0.37120  0.37301  0.37485  0.37671  0.35252

  WITH EQUILIBRIUM REACTIONS

 Cp, KJ/(KG)(K)   48.5444  50.1085  51.7327  53.4184  55.1671  56.9805  58.8601  37.1218
 CONDUCTIVITY     38.9067  40.5176  42.1916  43.9303  45.7350  47.6071  49.5480  27.2881
 PRANDTL NUMBER    0.4566   0.4547   0.4530   0.4514   0.4499   0.4486   0.4475   0.4796

  WITH FROZEN REACTIONS

 Cp, KJ/(KG)(K)   17.3824  17.4025  17.4228  17.4432  17.4638  17.4844  17.5052  17.2219
 CONDUCTIVITY      9.1131   9.1706   9.2290   9.2882   9.3482   9.4092   9.4709   8.6728
 PRANDTL NUMBER    0.6979   0.6977   0.6974   0.6971   0.6968   0.6966   0.6963   0.7000

 MOLE FRACTIONS

 *H               0.04685  0.04955  0.05236  0.05531  0.05839  0.06161  0.06496  0.02809
 *H2              0.95315  0.95045  0.94764  0.94469  0.94161  0.93839  0.93504  0.97191

  * THERMODYNAMIC PROPERTIES FITTED TO 20000.K

 NOTE. WEIGHT FRACTION OF FUEL IN TOTAL FUELS AND OF OXIDANT IN TOTAL OXIDANTS









               THERMODYNAMIC EQUILIBRIUM PROPERTIES AT ASSIGNED

                           TEMPERATURE AND PRESSURE

 CASE =                

             REACTANT                    WT FRACTION      ENERGY      TEMP
                                          (SEE NOTE)     KJ/KG-MOL      K  
             H2                           1.0000000         0.000      0.000

 O/F=    0.00000  %FUEL=100.000000  R,EQ.RATIO= 0.000000  PHI,EQ.RATIO= 0.000000

 THERMODYNAMIC PROPERTIES

 P, BAR           0.01200  0.01200  0.01200  0.01200  0.01200  0.01200  0.01200  0.01200
 T, K             2110.00  2120.00  2130.00  2140.00  2150.00  2160.00  2170.00  2180.00
 RHO, KG/CU M    1.3583-4 1.3506-4 1.3430-4 1.3353-4 1.3276-4 1.3200-4 1.3123-4 1.3046-4
 H, KJ/KG         31563.5  31951.2  32350.6  32762.1  33186.1  33623.3  34074.0  34538.9
 U, KJ/KG         22728.9  23066.5  23415.1  23775.3  24147.5  24532.2  24929.8  25341.0
 G, KJ/KG       -209754.1-210898.7-212045.2-213193.6-214343.9-215496.2-216650.5-217807.0
 S, KJ/(KG)(K)   114.3685 114.5519 114.7398 114.9325 115.1302 115.3331 115.5413 115.7550

 M, (1/n)           1.986    1.984    1.982    1.980    1.978    1.975    1.973    1.971
 (dLV/dLP)t      -1.00746 -1.00792 -1.00841 -1.00892 -1.00945 -1.01002 -1.01060 -1.01122
 (dLV/dLT)p        1.1933   1.2043   1.2159   1.2280   1.2405   1.2537   1.2674   1.2817
 Cp, KJ/(KG)(K)   38.2129  39.3499  40.5343  41.7675  43.0508  44.3858  45.7739  47.2165
 GAMMAs            1.1745   1.1717   1.1690   1.1664   1.1639   1.1615   1.1591   1.1568
 SON VEL,M/SEC     3221.2   3226.5   3232.0   3237.7   3243.5   3249.5   3255.6   3262.0

 TRANSPORT PROPERTIES (GASES ONLY)
   CONDUCTIVITY IN UNITS OF MILLIWATTS/(CM)(K)

 VISC,MILLIPOISE  0.35409  0.35567  0.35727  0.35889  0.36053  0.36219  0.36386  0.36556

  WITH EQUILIBRIUM REACTIONS

 Cp, KJ/(KG)(K)   38.2129  39.3499  40.5343  41.7675  43.0508  44.3858  45.7739  47.2165
 CONDUCTIVITY     28.4021  29.5652  30.7787  32.0441  33.3630  34.7369  36.1672  37.6555
 PRANDTL NUMBER    0.4764   0.4734   0.4705   0.4678   0.4652   0.4628   0.4605   0.4584

  WITH FROZEN REACTIONS

 Cp, KJ/(KG)(K)   17.2413  17.2608  17.2803  17.2999  17.3195  17.3393  17.3591  17.3790
 CONDUCTIVITY      8.7236   8.7752   8.8274   8.8804   8.9341   8.9885   9.0438   9.0998
 PRANDTL NUMBER    0.6998   0.6996   0.6994   0.6992   0.6989   0.6987   0.6984   0.6982

 MOLE FRACTIONS

 *H               0.02985  0.03170  0.03364  0.03569  0.03783  0.04008  0.04243  0.04490
 *H2              0.97015  0.96830  0.96636  0.96431  0.96217  0.95992  0.95757  0.95510

  * THERMODYNAMIC PROPERTIES FITTED TO 20000.K

 NOTE. WEIGHT FRACTION OF FUEL IN TOTAL FUELS AND OF OXIDANT IN TOTAL OXIDANTS









               THERMODYNAMIC EQUILIBRIUM PROPERTIES AT ASSIGNED

                           TEMPERATURE AND PRESSURE

 CASE =                

             REACTANT                    WT FRACTION      ENERGY      TEMP
                                          (SEE NOTE)     KJ/KG-MOL      K  
             H2                           1.0000000         0.000      0.000

 O/F=    0.00000  %FUEL=100.000000  R,EQ.RATIO= 0.000000  PHI,EQ.RATIO= 0.000000

 THERMODYNAMIC PROPERTIES

 P, BAR           0.01200  0.01200  0.01200  0.01200  0.01200  0.01200  0.01320  0.01320
 T, K             2190.00  2200.00  2210.00  2220.00  2230.00  2240.00  2100.00  2110.00
 RHO, KG/CU M    1.2970-4 1.2893-4 1.2816-4 1.2739-4 1.2662-4 1.2584-4 1.5036-4 1.4952-4
 H, KJ/KG         35018.5  35513.4  36024.2  36551.3  37095.6  37657.5  31037.4  31404.5
 U, KJ/KG         25766.2  26205.9  26660.8  27131.3  27618.1  28121.7  22258.3  22576.1
 G, KJ/KG       -218965.7-220126.5-221289.7-222455.2-223623.1-224793.5-207774.4-208912.4
 S, KJ/(KG)(K)   115.9745 116.2000 116.4316 116.6696 116.9142 117.1656 113.7199 113.8943

 M, (1/n)           1.968    1.965    1.962    1.959    1.956    1.953    1.989    1.987
 (dLV/dLP)t      -1.01186 -1.01254 -1.01325 -1.01398 -1.01475 -1.01555 -1.00670 -1.00712
 (dLV/dLT)p        1.2966   1.3120   1.3282   1.3449   1.3623   1.3804   1.1744   1.1844
 Cp, KJ/(KG)(K)   48.7151  50.2712  51.8863  53.5619  55.2994  57.1005  36.1940  37.2351
 GAMMAs            1.1546   1.1525   1.1505   1.1485   1.1466   1.1448   1.1801   1.1772
 SON VEL,M/SEC     3268.5   3275.2   3282.1   3289.2   3296.6   3304.1   3218.7   3223.8

 TRANSPORT PROPERTIES (GASES ONLY)
   CONDUCTIVITY IN UNITS OF MILLIWATTS/(CM)(K)

 VISC,MILLIPOISE  0.36729  0.36903  0.37080  0.37258  0.37440  0.37624  0.35229  0.35384

  WITH EQUILIBRIUM REACTIONS

 Cp, KJ/(KG)(K)   48.7151  50.2712  51.8863  53.5619  55.2994  57.1005  36.1940  37.2351
 CONDUCTIVITY     39.2031  40.8116  42.4824  44.2170  46.0166  47.8826  26.4248  27.4904
 PRANDTL NUMBER    0.4564   0.4546   0.4529   0.4513   0.4499   0.4487   0.4825   0.4793

  WITH FROZEN REACTIONS

 Cp, KJ/(KG)(K)   17.3990  17.4191  17.4393  17.4596  17.4800  17.5006  17.2196  17.2389
 CONDUCTIVITY      9.1566   9.2142   9.2727   9.3320   9.3922   9.4532   8.6637   8.7140
 PRANDTL NUMBER    0.6979   0.6976   0.6974   0.6971   0.6968   0.6965   0.7002   0.7000

 MOLE FRACTIONS

 *H               0.04749  0.05019  0.05302  0.05598  0.05906  0.06228  0.02680  0.02848
 *H2              0.95251  0.94981  0.94698  0.94402  0.94094  0.93772  0.97320  0.97152

  * THERMODYNAMIC PROPERTIES FITTED TO 20000.K

 NOTE. WEIGHT FRACTION OF FUEL IN TOTAL FUELS AND OF OXIDANT IN TOTAL OXIDANTS









               THERMODYNAMIC EQUILIBRIUM PROPERTIES AT ASSIGNED

                           TEMPERATURE AND PRESSURE

 CASE =                

             REACTANT                    WT FRACTION      ENERGY      TEMP
                                          (SEE NOTE)     KJ/KG-MOL      K  
             H2                           1.0000000         0.000      0.000

 O/F=    0.00000  %FUEL=100.000000  R,EQ.RATIO= 0.000000  PHI,EQ.RATIO= 0.000000

 THERMODYNAMIC PROPERTIES

 P, BAR           0.01320  0.01320  0.01320  0.01320  0.01320  0.01320  0.01320  0.01320
 T, K             2120.00  2130.00  2140.00  2150.00  2160.00  2170.00  2180.00  2190.00
 RHO, KG/CU M    1.4868-4 1.4784-4 1.4700-4 1.4617-4 1.4533-4 1.4450-4 1.4366-4 1.4282-4
 H, KJ/KG         31782.2  32171.1  32571.4  32983.8  33408.6  33846.4  34297.8  34763.1
 U, KJ/KG         22904.0  23242.5  23592.1  23953.1  24326.0  24711.3  25109.4  25521.0
 G, KJ/KG       -210052.2-211193.9-212337.4-213482.8-214630.1-215779.4-216930.8-218084.3
 S, KJ/(KG)(K)   114.0729 114.2558 114.4434 114.6356 114.8327 115.0350 115.2425 115.4555

 M, (1/n)           1.985    1.984    1.982    1.979    1.977    1.975    1.973    1.970
 (dLV/dLP)t      -1.00756 -1.00802 -1.00851 -1.00902 -1.00956 -1.01012 -1.01071 -1.01133
 (dLV/dLT)p        1.1950   1.2060   1.2175   1.2296   1.2421   1.2552   1.2689   1.2831
 Cp, KJ/(KG)(K)   38.3201  39.4503  40.6270  41.8516  43.1254  44.4499  45.8264  47.2564
 GAMMAs            1.1744   1.1717   1.1690   1.1665   1.1640   1.1616   1.1592   1.1570
 SON VEL,M/SEC     3229.0   3234.4   3239.9   3245.6   3251.5   3257.5   3263.7   3270.0

 TRANSPORT PROPERTIES (GASES ONLY)
   CONDUCTIVITY IN UNITS OF MILLIWATTS/(CM)(K)

 VISC,MILLIPOISE  0.35541  0.35699  0.35860  0.36022  0.36186  0.36352  0.36520  0.36690

  WITH EQUILIBRIUM REACTIONS

 Cp, KJ/(KG)(K)   38.3201  39.4503  40.6270  41.8516  43.1254  44.4499  45.8264  47.2564
 CONDUCTIVITY     28.6028  29.7636  30.9741  32.2358  33.5502  34.9188  36.3429  37.8240
 PRANDTL NUMBER    0.4762   0.4732   0.4704   0.4677   0.4651   0.4627   0.4605   0.4584

  WITH FROZEN REACTIONS

 Cp, KJ/(KG)(K)   17.2582  17.2776  17.2970  17.3165  17.3361  17.3557  17.3754  17.3952
 CONDUCTIVITY      8.7650   8.8166   8.8690   8.9220   8.9758   9.0304   9.0857   9.1418
 PRANDTL NUMBER    0.6998   0.6996   0.6994   0.6991   0.6989   0.6987   0.6984   0.6981

 MOLE FRACTIONS

 *H               0.03025  0.03210  0.03405  0.03610  0.03825  0.04050  0.04286  0.04533
 *H2              0.96975  0.96790  0.96595  0.96390  0.96175  0.95950  0.95714  0.95467

  * THERMODYNAMIC PROPERTIES FITTED TO 20000.K

 NOTE. WEIGHT FRACTION OF FUEL IN TOTAL FUELS AND OF OXIDANT IN TOTAL OXIDANTS









               THERMODYNAMIC EQUILIBRIUM PROPERTIES AT ASSIGNED

                           TEMPERATURE AND PRESSURE

 CASE =                

             REACTANT                    WT FRACTION      ENERGY      TEMP
                                          (SEE NOTE)     KJ/KG-MOL      K  
             H2                           1.0000000         0.000      0.000

 O/F=    0.00000  %FUEL=100.000000  R,EQ.RATIO= 0.000000  PHI,EQ.RATIO= 0.000000

 THERMODYNAMIC PROPERTIES

 P, BAR           0.01320  0.01320  0.01320  0.01320  0.01320  0.01480  0.01480  0.01480
 T, K             2200.00  2210.00  2220.00  2230.00  2240.00  2100.00  2110.00  2120.00
 RHO, KG/CU M    1.4199-4 1.4115-4 1.4031-4 1.3947-4 1.3863-4 1.6871-4 1.6777-4 1.6684-4
 H, KJ/KG         35243.1  35738.2  36248.9  36776.0  37319.9  30867.2  31223.4  31589.7
 U, KJ/KG         25946.4  26386.3  26841.1  27311.5  27797.9  22094.6  22402.0  22719.0
 G, KJ/KG       -219240.0-220397.8-221557.9-222720.4-223885.3-206770.3-207902.8-209036.9
 S, KJ/(KG)(K)   115.6741 115.8986 116.1292 116.3661 116.6095 113.1607 113.3299 113.5031

 M, (1/n)           1.968    1.965    1.962    1.959    1.956    1.990    1.989    1.987
 (dLV/dLP)t      -1.01197 -1.01265 -1.01335 -1.01409 -1.01485 -1.00633 -1.00673 -1.00715
 (dLV/dLT)p        1.2979   1.3133   1.3293   1.3460   1.3633   1.1648   1.1743   1.1843
 Cp, KJ/(KG)(K)   48.7413  50.2824  51.8813  53.5394  55.2581  35.1369  36.1212  37.1469
 GAMMAs            1.1548   1.1527   1.1507   1.1488   1.1469   1.1834   1.1805   1.1776
 SON VEL,M/SEC     3276.6   3283.3   3290.3   3297.4   3304.7   3222.0   3227.0   3232.1

 TRANSPORT PROPERTIES (GASES ONLY)
   CONDUCTIVITY IN UNITS OF MILLIWATTS/(CM)(K)

 VISC,MILLIPOISE  0.36862  0.37037  0.37213  0.37393  0.37574  0.35203  0.35356  0.35511

  WITH EQUILIBRIUM REACTIONS

 Cp, KJ/(KG)(K)   48.7413  50.2824  51.8813  53.5394  55.2581  35.1369  36.1212  37.1469
 CONDUCTIVITY     39.3635  40.9629  42.6235  44.3466  46.1337  25.4399  26.4500  27.5046
 PRANDTL NUMBER    0.4564   0.4546   0.4530   0.4514   0.4501   0.4862   0.4828   0.4796

  WITH FROZEN REACTIONS

 Cp, KJ/(KG)(K)   17.4151  17.4351  17.4552  17.4754  17.4958  17.2170  17.2362  17.2553
 CONDUCTIVITY      9.1987   9.2564   9.3149   9.3742   9.4344   8.6533   8.7030   8.7533
 PRANDTL NUMBER    0.6979   0.6976   0.6973   0.6971   0.6968   0.7004   0.7002   0.7000

 MOLE FRACTIONS

 *H               0.04791  0.05062  0.05344  0.05639  0.05947  0.02533  0.02692  0.02859
 *H2              0.95209  0.94938  0.94656  0.94361  0.94053  0.97467  0.97308  0.97141

  * THERMODYNAMIC PROPERTIES FITTED TO 20000.K

 NOTE. WEIGHT FRACTION OF FUEL IN TOTAL FUELS AND OF OXIDANT IN TOTAL OXIDANTS









               THERMODYNAMIC EQUILIBRIUM PROPERTIES AT ASSIGNED

                           TEMPERATURE AND PRESSURE

 CASE =                

             REACTANT                    WT FRACTION      ENERGY      TEMP
                                          (SEE NOTE)     KJ/KG-MOL      K  
             H2                           1.0000000         0.000      0.000

 O/F=    0.00000  %FUEL=100.000000  R,EQ.RATIO= 0.000000  PHI,EQ.RATIO= 0.000000

 THERMODYNAMIC PROPERTIES

 P, BAR           0.01480  0.01480  0.01480  0.01480  0.01480  0.01480  0.01480  0.01480
 T, K             2130.00  2140.00  2150.00  2160.00  2170.00  2180.00  2190.00  2200.00
 RHO, KG/CU M    1.6591-4 1.6498-4 1.6405-4 1.6312-4 1.6219-4 1.6127-4 1.6034-4 1.5941-4
 H, KJ/KG         31966.5  32354.2  32753.2  33164.0  33587.2  34023.0  34472.2  34935.1
 U, KJ/KG         23046.0  23383.4  23731.6  24091.1  24462.3  24845.7  25241.7  25650.8
 G, KJ/KG       -210172.8-211310.5-212450.1-213591.5-214734.9-215880.2-217027.6-218177.0
 S, KJ/(KG)(K)   113.6804 113.8620 114.0480 114.2387 114.4341 114.6345 114.8401 115.0510

 M, (1/n)           1.985    1.983    1.981    1.979    1.977    1.975    1.973    1.970
 (dLV/dLP)t      -1.00758 -1.00805 -1.00853 -1.00904 -1.00957 -1.01013 -1.01071 -1.01132
 (dLV/dLT)p        1.1947   1.2056   1.2170   1.2289   1.2413   1.2542   1.2677   1.2817
 Cp, KJ/(KG)(K)   38.2153  39.3277  40.4853  41.6894  42.9414  44.2426  45.5943  46.9979
 GAMMAs            1.1749   1.1722   1.1696   1.1670   1.1646   1.1622   1.1599   1.1577
 SON VEL,M/SEC     3237.4   3242.8   3248.3   3254.0   3259.9   3265.9   3272.1   3278.4

 TRANSPORT PROPERTIES (GASES ONLY)
   CONDUCTIVITY IN UNITS OF MILLIWATTS/(CM)(K)

 VISC,MILLIPOISE  0.35668  0.35826  0.35986  0.36148  0.36312  0.36478  0.36645  0.36815

  WITH EQUILIBRIUM REACTIONS

 Cp, KJ/(KG)(K)   38.2153  39.3277  40.4853  41.6894  42.9414  44.2426  45.5943  46.9979
 CONDUCTIVITY     28.6051  29.7528  30.9491  32.1955  33.4932  34.8439  36.2487  37.7092
 PRANDTL NUMBER    0.4765   0.4736   0.4707   0.4681   0.4656   0.4632   0.4609   0.4588

  WITH FROZEN REACTIONS

 Cp, KJ/(KG)(K)   17.2745  17.2938  17.3131  17.3324  17.3519  17.3714  17.3910  17.4107
 CONDUCTIVITY      8.8043   8.8559   8.9082   8.9612   9.0150   9.0695   9.1247   9.1807
 PRANDTL NUMBER    0.6998   0.6996   0.6994   0.6992   0.6989   0.6987   0.6984   0.6982

 MOLE FRACTIONS

 *H               0.03035  0.03219  0.03413  0.03616  0.03829  0.04053  0.04286  0.04531
 *H2              0.96965  0.96781  0.96587  0.96384  0.96171  0.95947  0.95714  0.95469

  * THERMODYNAMIC PROPERTIES FITTED TO 20000.K

 NOTE. WEIGHT FRACTION OF FUEL IN TOTAL FUELS AND OF OXIDANT IN TOTAL OXIDANTS









               THERMODYNAMIC EQUILIBRIUM PROPERTIES AT ASSIGNED

                           TEMPERATURE AND PRESSURE

 CASE =                

             REACTANT                    WT FRACTION      ENERGY      TEMP
                                          (SEE NOTE)     KJ/KG-MOL      K  
             H2                           1.0000000         0.000      0.000

 O/F=    0.00000  %FUEL=100.000000  R,EQ.RATIO= 0.000000  PHI,EQ.RATIO= 0.000000

 THERMODYNAMIC PROPERTIES

 P, BAR           0.01480  0.01480  0.01480  0.01480  0.01650  0.01650  0.01650  0.01650
 T, K             2210.00  2220.00  2230.00  2240.00  2100.00  2110.00  2120.00  2130.00
 RHO, KG/CU M    1.5848-4 1.5755-4 1.5662-4 1.5569-4 1.8821-4 1.8718-4 1.8615-4 1.8511-4
 H, KJ/KG         35412.3  35904.4  36411.8  36935.2  30714.2  31060.7  31416.7  31782.7
 U, KJ/KG         26073.6  26510.6  26962.1  27428.9  21947.5  22245.5  22552.7  22869.3
 G, KJ/KG       -219328.6-220482.4-221638.4-222796.8-205816.8-206943.9-208072.7-209203.3
 S, KJ/(KG)(K)   115.2674 115.4895 115.7176 115.9518 112.6338 112.7984 112.9667 113.1389

 M, (1/n)           1.968    1.965    1.962    1.959    1.992    1.990    1.989    1.987
 (dLV/dLP)t      -1.01196 -1.01263 -1.01333 -1.01405 -1.00600 -1.00638 -1.00677 -1.00719
 (dLV/dLT)p        1.2963   1.3115   1.3273   1.3437   1.1562   1.1652   1.1747   1.1846
 Cp, KJ/(KG)(K)   48.4548  49.9662  51.5337  53.1584  34.1868  35.1199  36.0924  37.1052
 GAMMAs            1.1555   1.1535   1.1515   1.1495   1.1866   1.1836   1.1808   1.1780
 SON VEL,M/SEC     3285.0   3291.7   3298.6   3305.7   3225.3   3230.1   3235.2   3240.3

 TRANSPORT PROPERTIES (GASES ONLY)
   CONDUCTIVITY IN UNITS OF MILLIWATTS/(CM)(K)

 VISC,MILLIPOISE  0.36987  0.37162  0.37338  0.37517  0.35179  0.35331  0.35484  0.35639

  WITH EQUILIBRIUM REACTIONS

 Cp, KJ/(KG)(K)   48.4548  49.9662  51.5337  53.1584  34.1868  35.1199  36.0924  37.1052
 CONDUCTIVITY     39.2266  40.8024  42.4378  44.1342  24.5533  25.5135  26.5159  27.5619
 PRANDTL NUMBER    0.4569   0.4551   0.4534   0.4519   0.4898   0.4863   0.4830   0.4798

  WITH FROZEN REACTIONS

 Cp, KJ/(KG)(K)   17.4304  17.4503  17.4702  17.4903  17.2147  17.2337  17.2527  17.2717
 CONDUCTIVITY      9.2375   9.2951   9.3535   9.4127   8.6439   8.6930   8.7427   8.7931
 PRANDTL NUMBER    0.6979   0.6977   0.6974   0.6971   0.7006   0.7004   0.7002   0.7000

 MOLE FRACTIONS

 *H               0.04787  0.05055  0.05334  0.05626  0.02400  0.02551  0.02710  0.02876
 *H2              0.95213  0.94945  0.94666  0.94374  0.97600  0.97449  0.97290  0.97124

  * THERMODYNAMIC PROPERTIES FITTED TO 20000.K

 NOTE. WEIGHT FRACTION OF FUEL IN TOTAL FUELS AND OF OXIDANT IN TOTAL OXIDANTS









               THERMODYNAMIC EQUILIBRIUM PROPERTIES AT ASSIGNED

                           TEMPERATURE AND PRESSURE

 CASE =                

             REACTANT                    WT FRACTION      ENERGY      TEMP
                                          (SEE NOTE)     KJ/KG-MOL      K  
             H2                           1.0000000         0.000      0.000

 O/F=    0.00000  %FUEL=100.000000  R,EQ.RATIO= 0.000000  PHI,EQ.RATIO= 0.000000

 THERMODYNAMIC PROPERTIES

 P, BAR           0.01650  0.01650  0.01650  0.01650  0.01650  0.01650  0.01650  0.01650
 T, K             2140.00  2150.00  2160.00  2170.00  2180.00  2190.00  2200.00  2210.00
 RHO, KG/CU M    1.8409-4 1.8306-4 1.8203-4 1.8101-4 1.7998-4 1.7896-4 1.7793-4 1.7691-4
 H, KJ/KG         32158.9  32546.0  32944.2  33354.1  33776.1  34210.7  34658.3  35119.4
 U, KJ/KG         23195.8  23532.5  23879.9  24238.5  24608.6  24990.6  25385.1  25792.6
 G, KJ/KG       -210335.5-211469.6-212605.5-213743.2-214882.9-216024.5-217168.1-218313.8
 S, KJ/(KG)(K)   113.3152 113.4956 113.6804 113.8697 114.0637 114.2626 114.4665 114.6757

 M, (1/n)           1.985    1.983    1.981    1.979    1.977    1.975    1.973    1.970
 (dLV/dLP)t      -1.00763 -1.00809 -1.00857 -1.00907 -1.00960 -1.01016 -1.01074 -1.01134
 (dLV/dLT)p        1.1949   1.2057   1.2170   1.2288   1.2411   1.2539   1.2672   1.2810
 Cp, KJ/(KG)(K)   38.1597  39.2570  40.3985  41.5853  42.8188  44.1001  45.4306  46.8116
 GAMMAs            1.1752   1.1726   1.1700   1.1675   1.1651   1.1627   1.1604   1.1582
 SON VEL,M/SEC     3245.6   3251.0   3256.5   3262.3   3268.1   3274.2   3280.4   3286.7

 TRANSPORT PROPERTIES (GASES ONLY)
   CONDUCTIVITY IN UNITS OF MILLIWATTS/(CM)(K)

 VISC,MILLIPOISE  0.35795  0.35954  0.36114  0.36276  0.36439  0.36605  0.36773  0.36943

  WITH EQUILIBRIUM REACTIONS

 Cp, KJ/(KG)(K)   38.1597  39.2570  40.3985  41.5853  42.8188  44.1001  45.4306  46.8116
 CONDUCTIVITY     28.6529  29.7901  30.9750  32.2089  33.4931  34.8290  36.2180  37.6613
 PRANDTL NUMBER    0.4767   0.4738   0.4710   0.4684   0.4659   0.4635   0.4613   0.4592

  WITH FROZEN REACTIONS

 Cp, KJ/(KG)(K)   17.2908  17.3100  17.3292  17.3484  17.3678  17.3872  17.4066  17.4262
 CONDUCTIVITY      8.8441   8.8957   8.9480   9.0010   9.0548   9.1092   9.1644   9.2204
 PRANDTL NUMBER    0.6998   0.6996   0.6994   0.6992   0.6989   0.6987   0.6985   0.6982

 MOLE FRACTIONS

 *H               0.03051  0.03235  0.03428  0.03630  0.03842  0.04064  0.04297  0.04540
 *H2              0.96949  0.96765  0.96572  0.96370  0.96158  0.95936  0.95703  0.95460

  * THERMODYNAMIC PROPERTIES FITTED TO 20000.K

 NOTE. WEIGHT FRACTION OF FUEL IN TOTAL FUELS AND OF OXIDANT IN TOTAL OXIDANTS









               THERMODYNAMIC EQUILIBRIUM PROPERTIES AT ASSIGNED

                           TEMPERATURE AND PRESSURE

 CASE =                

             REACTANT                    WT FRACTION      ENERGY      TEMP
                                          (SEE NOTE)     KJ/KG-MOL      K  
             H2                           1.0000000         0.000      0.000

 O/F=    0.00000  %FUEL=100.000000  R,EQ.RATIO= 0.000000  PHI,EQ.RATIO= 0.000000

 THERMODYNAMIC PROPERTIES

 P, BAR           0.01650  0.01650  0.01650  0.01800  0.01800  0.01800  0.01800  0.01800
 T, K             2220.00  2230.00  2240.00  2100.00  2110.00  2120.00  2130.00  2140.00
 RHO, KG/CU M    1.7588-4 1.7486-4 1.7383-4 2.0543-4 2.0430-4 2.0318-4 2.0207-4 2.0095-4
 H, KJ/KG         35594.7  36084.5  36589.5  30597.6  30936.7  31284.9  31642.6  32010.2
 U, KJ/KG         26213.4  26648.1  27097.3  21835.4  22126.3  22425.9  22734.6  23052.8
 G, KJ/KG       -219461.7-220611.7-221763.9-205054.2-206177.1-207301.7-208427.9-209555.9
 S, KJ/(KG)(K)   114.8902 115.1104 115.3363 112.2151 112.3762 112.5408 112.7092 112.8813

 M, (1/n)           1.968    1.965    1.962    1.993    1.991    1.990    1.988    1.986
 (dLV/dLP)t      -1.01198 -1.01264 -1.01333 -1.00575 -1.00611 -1.00649 -1.00689 -1.00731
 (dLV/dLT)p        1.2955   1.3104   1.3260   1.1496   1.1583   1.1674   1.1768   1.1868
 Cp, KJ/(KG)(K)   48.2444  49.7302  51.2705  33.4627  34.3569  35.2887  36.2592  37.2696
 GAMMAs            1.1561   1.1540   1.1521   1.1891   1.1862   1.1833   1.1804   1.1777
 SON VEL,M/SEC     3293.3   3300.0   3306.9   3227.9   3232.7   3237.7   3242.7   3247.9

 TRANSPORT PROPERTIES (GASES ONLY)
   CONDUCTIVITY IN UNITS OF MILLIWATTS/(CM)(K)

 VISC,MILLIPOISE  0.37115  0.37289  0.37465  0.35161  0.35311  0.35463  0.35617  0.35772

  WITH EQUILIBRIUM REACTIONS

 Cp, KJ/(KG)(K)   48.2444  49.7302  51.2705  33.4627  34.3569  35.2887  36.2592  37.2696
 CONDUCTIVITY     39.1603  40.7162  42.3304  23.8769  24.7988  25.7614  26.7658  27.8134
 PRANDTL NUMBER    0.4572   0.4554   0.4538   0.4928   0.4892   0.4858   0.4825   0.4793

  WITH FROZEN REACTIONS

 Cp, KJ/(KG)(K)   17.4458  17.4655  17.4853  17.2129  17.2318  17.2507  17.2696  17.2886
 CONDUCTIVITY      9.2771   9.3347   9.3930   8.6367   8.6854   8.7347   8.7845   8.8350
 PRANDTL NUMBER    0.6979   0.6977   0.6974   0.7007   0.7006   0.7004   0.7002   0.7000

 MOLE FRACTIONS

 *H               0.04794  0.05059  0.05337  0.02299  0.02444  0.02596  0.02756  0.02923
 *H2              0.95206  0.94941  0.94663  0.97701  0.97556  0.97404  0.97244  0.97077

  * THERMODYNAMIC PROPERTIES FITTED TO 20000.K

 NOTE. WEIGHT FRACTION OF FUEL IN TOTAL FUELS AND OF OXIDANT IN TOTAL OXIDANTS









               THERMODYNAMIC EQUILIBRIUM PROPERTIES AT ASSIGNED

                           TEMPERATURE AND PRESSURE

 CASE =                

             REACTANT                    WT FRACTION      ENERGY      TEMP
                                          (SEE NOTE)     KJ/KG-MOL      K  
             H2                           1.0000000         0.000      0.000

 O/F=    0.00000  %FUEL=100.000000  R,EQ.RATIO= 0.000000  PHI,EQ.RATIO= 0.000000

 THERMODYNAMIC PROPERTIES

 P, BAR           0.01800  0.01800  0.01800  0.01800  0.01800  0.01800  0.01800  0.01800
 T, K             2150.00  2160.00  2170.00  2180.00  2190.00  2200.00  2210.00  2220.00
 RHO, KG/CU M    1.9984-4 1.9873-4 1.9762-4 1.9651-4 1.9540-4 1.9429-4 1.9318-4 1.9207-4
 H, KJ/KG         32388.1  32776.7  33176.5  33587.9  34011.4  34447.3  34896.2  35358.7
 U, KJ/KG         23380.8  23719.0  24067.9  24427.9  24799.3  25182.7  25578.4  25987.0
 G, KJ/KG       -210685.6-211817.1-212950.3-214085.5-215222.6-216361.6-217502.7-218645.8
 S, KJ/(KG)(K)   113.0575 113.2379 113.4225 113.6117 113.8055 114.0041 114.2077 114.4164

 M, (1/n)           1.985    1.983    1.981    1.979    1.977    1.974    1.972    1.970
 (dLV/dLP)t      -1.00775 -1.00821 -1.00869 -1.00920 -1.00973 -1.01029 -1.01087 -1.01148
 (dLV/dLT)p        1.1971   1.2079   1.2192   1.2310   1.2433   1.2560   1.2694   1.2832
 Cp, KJ/(KG)(K)   38.3211  39.4147  40.5519  41.7336  42.9613  44.2361  45.5593  46.9320
 GAMMAs            1.1750   1.1724   1.1698   1.1674   1.1650   1.1627   1.1604   1.1582
 SON VEL,M/SEC     3253.2   3258.7   3264.3   3270.0   3275.9   3282.0   3288.2   3294.7

 TRANSPORT PROPERTIES (GASES ONLY)
   CONDUCTIVITY IN UNITS OF MILLIWATTS/(CM)(K)

 VISC,MILLIPOISE  0.35929  0.36088  0.36248  0.36410  0.36574  0.36740  0.36908  0.37078

  WITH EQUILIBRIUM REACTIONS

 Cp, KJ/(KG)(K)   38.3211  39.4147  40.5519  41.7336  42.9613  44.2361  45.5593  46.9320
 CONDUCTIVITY     28.9055  30.0433  31.2283  32.4617  33.7448  35.0790  36.4655  37.9056
 PRANDTL NUMBER    0.4763   0.4734   0.4707   0.4681   0.4656   0.4633   0.4611   0.4591

  WITH FROZEN REACTIONS

 Cp, KJ/(KG)(K)   17.3076  17.3267  17.3458  17.3650  17.3842  17.4035  17.4229  17.4424
 CONDUCTIVITY      8.8861   8.9379   8.9903   9.0435   9.0973   9.1519   9.2072   9.2633
 PRANDTL NUMBER    0.6998   0.6996   0.6994   0.6991   0.6989   0.6987   0.6984   0.6982

 MOLE FRACTIONS

 *H               0.03100  0.03285  0.03479  0.03682  0.03895  0.04118  0.04351  0.04595
 *H2              0.96900  0.96715  0.96521  0.96318  0.96105  0.95882  0.95649  0.95405

  * THERMODYNAMIC PROPERTIES FITTED TO 20000.K

 NOTE. WEIGHT FRACTION OF FUEL IN TOTAL FUELS AND OF OXIDANT IN TOTAL OXIDANTS









               THERMODYNAMIC EQUILIBRIUM PROPERTIES AT ASSIGNED

                           TEMPERATURE AND PRESSURE

 CASE =                

             REACTANT                    WT FRACTION      ENERGY      TEMP
                                          (SEE NOTE)     KJ/KG-MOL      K  
             H2                           1.0000000         0.000      0.000

 O/F=    0.00000  %FUEL=100.000000  R,EQ.RATIO= 0.000000  PHI,EQ.RATIO= 0.000000

 THERMODYNAMIC PROPERTIES

 P, BAR           0.01800  0.01800  0.02000  0.02000  0.02000  0.02000  0.02000  0.02000
 T, K             2230.00  2240.00  2100.00  2110.00  2120.00  2130.00  2140.00  2150.00
 RHO, KG/CU M    1.9096-4 1.8985-4 2.2839-4 2.2715-4 2.2591-4 2.2468-4 2.2345-4 2.2222-4
 H, KJ/KG         35835.1  36325.9  30463.0  30793.5  31132.7  31480.9  31838.5  32205.9
 U, KJ/KG         26408.8  26844.5  21706.0  21988.7  22279.7  22579.2  22887.8  23205.7
 G, KJ/KG       -219791.0-220938.4-204131.3-205249.1-206368.6-207489.7-208612.5-209736.9
 S, KJ/(KG)(K)   114.6305 114.8502 111.7116 111.8686 112.0289 112.1928 112.3603 112.5315

 M, (1/n)           1.967    1.964    1.994    1.992    1.991    1.990    1.988    1.986
 (dLV/dLP)t      -1.01212 -1.01278 -1.00546 -1.00580 -1.00616 -1.00654 -1.00694 -1.00736
 (dLV/dLT)p        1.2976   1.3125   1.1420   1.1503   1.1589   1.1679   1.1773   1.1872
 Cp, KJ/(KG)(K)   48.3557  49.8314  32.6271  33.4763  34.3612  35.2828  36.2423  37.2407
 GAMMAs            1.1562   1.1541   1.1922   1.1892   1.1863   1.1835   1.1807   1.1779
 SON VEL,M/SEC     3301.2   3308.0   3231.2   3235.9   3240.8   3245.7   3250.8   3256.0

 TRANSPORT PROPERTIES (GASES ONLY)
   CONDUCTIVITY IN UNITS OF MILLIWATTS/(CM)(K)

 VISC,MILLIPOISE  0.37251  0.37425  0.35139  0.35289  0.35439  0.35591  0.35745  0.35900

  WITH EQUILIBRIUM REACTIONS

 Cp, KJ/(KG)(K)   48.3557  49.8314  32.6271  33.4763  34.3612  35.2828  36.2423  37.2407
 CONDUCTIVITY     39.4006  40.9518  23.0953  23.9730  24.8894  25.8457  26.8430  27.8828
 PRANDTL NUMBER    0.4572   0.4554   0.4964   0.4928   0.4893   0.4859   0.4826   0.4795

  WITH FROZEN REACTIONS

 Cp, KJ/(KG)(K)   17.4619  17.4816  17.2109  17.2296  17.2484  17.2672  17.2860  17.3049
 CONDUCTIVITY      9.3202   9.3778   8.6284   8.6766   8.7253   8.7746   8.8245   8.8750
 PRANDTL NUMBER    0.6979   0.6977   0.7009   0.7007   0.7006   0.7004   0.7002   0.7000

 MOLE FRACTIONS

 *H               0.04849  0.05116  0.02183  0.02320  0.02464  0.02616  0.02776  0.02943
 *H2              0.95151  0.94884  0.97817  0.97680  0.97536  0.97384  0.97224  0.97057

  * THERMODYNAMIC PROPERTIES FITTED TO 20000.K

 NOTE. WEIGHT FRACTION OF FUEL IN TOTAL FUELS AND OF OXIDANT IN TOTAL OXIDANTS









               THERMODYNAMIC EQUILIBRIUM PROPERTIES AT ASSIGNED

                           TEMPERATURE AND PRESSURE

 CASE =                

             REACTANT                    WT FRACTION      ENERGY      TEMP
                                          (SEE NOTE)     KJ/KG-MOL      K  
             H2                           1.0000000         0.000      0.000

 O/F=    0.00000  %FUEL=100.000000  R,EQ.RATIO= 0.000000  PHI,EQ.RATIO= 0.000000

 THERMODYNAMIC PROPERTIES

 P, BAR           0.02000  0.02000  0.02000  0.02000  0.02000  0.02000  0.02000  0.02000
 T, K             2160.00  2170.00  2180.00  2190.00  2200.00  2210.00  2220.00  2230.00
 RHO, KG/CU M    2.2099-4 2.1977-4 2.1855-4 2.1732-4 2.1610-4 2.1488-4 2.1366-4 2.1244-4
 H, KJ/KG         32583.4  32971.6  33370.7  33781.3  34203.8  34638.6  35086.3  35547.1
 U, KJ/KG         23533.4  23871.1  24219.3  24578.5  24949.0  25331.2  25725.6  26132.7
 G, KJ/KG       -210863.1-211991.1-213120.9-214252.5-215386.0-216521.5-217659.0-218798.5
 S, KJ/(KG)(K)   112.7067 112.8860 113.0695 113.2575 113.4499 113.6471 113.8492 114.0564

 M, (1/n)           1.984    1.983    1.981    1.979    1.976    1.974    1.972    1.969
 (dLV/dLP)t      -1.00779 -1.00826 -1.00874 -1.00924 -1.00977 -1.01033 -1.01090 -1.01151
 (dLV/dLT)p        1.1974   1.2082   1.2194   1.2310   1.2432   1.2558   1.2690   1.2827
 Cp, KJ/(KG)(K)   38.2793  39.3590  40.4812  41.6469  42.8573  44.1136  45.4171  46.7689
 GAMMAs            1.1753   1.1727   1.1702   1.1678   1.1654   1.1631   1.1609   1.1588
 SON VEL,M/SEC     3261.4   3266.8   3272.5   3278.2   3284.2   3290.2   3296.5   3302.9

 TRANSPORT PROPERTIES (GASES ONLY)
   CONDUCTIVITY IN UNITS OF MILLIWATTS/(CM)(K)

 VISC,MILLIPOISE  0.36057  0.36216  0.36376  0.36538  0.36703  0.36868  0.37036  0.37206

  WITH EQUILIBRIUM REACTIONS

 Cp, KJ/(KG)(K)   38.2793  39.3590  40.4812  41.6469  42.8573  44.1136  45.4171  46.7689
 CONDUCTIVITY     28.9662  30.0945  31.2690  32.4909  33.7616  35.0822  36.4540  37.8783
 PRANDTL NUMBER    0.4765   0.4736   0.4709   0.4684   0.4659   0.4636   0.4614   0.4594

  WITH FROZEN REACTIONS

 Cp, KJ/(KG)(K)   17.3238  17.3428  17.3618  17.3809  17.4000  17.4192  17.4385  17.4578
 CONDUCTIVITY      8.9261   8.9779   9.0304   9.0835   9.1374   9.1919   9.2472   9.3033
 PRANDTL NUMBER    0.6998   0.6996   0.6994   0.6991   0.6989   0.6987   0.6984   0.6982

 MOLE FRACTIONS

 *H               0.03119  0.03303  0.03496  0.03699  0.03910  0.04132  0.04364  0.04606
 *H2              0.96881  0.96697  0.96504  0.96301  0.96090  0.95868  0.95636  0.95394

  * THERMODYNAMIC PROPERTIES FITTED TO 20000.K

 NOTE. WEIGHT FRACTION OF FUEL IN TOTAL FUELS AND OF OXIDANT IN TOTAL OXIDANTS









               THERMODYNAMIC EQUILIBRIUM PROPERTIES AT ASSIGNED

                           TEMPERATURE AND PRESSURE

 CASE =                

             REACTANT                    WT FRACTION      ENERGY      TEMP
                                          (SEE NOTE)     KJ/KG-MOL      K  
             H2                           1.0000000         0.000      0.000

 O/F=    0.00000  %FUEL=100.000000  R,EQ.RATIO= 0.000000  PHI,EQ.RATIO= 0.000000

 THERMODYNAMIC PROPERTIES

 P, BAR           0.02000
 T, K             2240.00
 RHO, KG/CU M    2.1122-4
 H, KJ/KG         36021.8
 U, KJ/KG         26552.8
 G, KJ/KG       -219940.1
 S, KJ/(KG)(K)   114.2687

 M, (1/n)           1.967
 (dLV/dLP)t      -1.01214
 (dLV/dLT)p        1.2969
 Cp, KJ/(KG)(K)   48.1702
 GAMMAs            1.1567
 SON VEL,M/SEC     3309.5

 TRANSPORT PROPERTIES (GASES ONLY)
   CONDUCTIVITY IN UNITS OF MILLIWATTS/(CM)(K)

 VISC,MILLIPOISE  0.37378

  WITH EQUILIBRIUM REACTIONS

 Cp, KJ/(KG)(K)   48.1702
 CONDUCTIVITY     39.3562
 PRANDTL NUMBER    0.4575

  WITH FROZEN REACTIONS

 Cp, KJ/(KG)(K)   17.4772
 CONDUCTIVITY      9.3601
 PRANDTL NUMBER    0.6979

 MOLE FRACTIONS

 *H               0.04860
 *H2              0.95140

  * THERMODYNAMIC PROPERTIES FITTED TO 20000.K

 NOTE. WEIGHT FRACTION OF FUEL IN TOTAL FUELS AND OF OXIDANT IN TOTAL OXIDANTS



  
