
 *******************************************************************************

         NASA-GLENN CHEMICAL EQUILIBRIUM PROGRAM CEA2, MAY 21, 2004
                   BY  BONNIE MCBRIDE AND SANFORD GORDON
      REFS: NASA RP-1311, PART I, 1994 AND NASA RP-1311, PART II, 1996

 *******************************************************************************



  prob tp ions
  p,bar= 280.0,310.0,350.0,390.0,440.0,490.0,540.0,600.0,670.0,740.0,825.0,910.0
  t,k= 1500,1510,1520,1530,1540,1550,1560,1570,1580,1590,1600,1610,1620,1630,1640
  
  reac
  na H2                wt%=100.0000
  
  output short
  output siunits
  output transport
  
 end





               THERMODYNAMIC EQUILIBRIUM PROPERTIES AT ASSIGNED

                           TEMPERATURE AND PRESSURE

 CASE =                

             REACTANT                    WT FRACTION      ENERGY      TEMP
                                          (SEE NOTE)     KJ/KG-MOL      K  
             H2                           1.0000000         0.000      0.000

 O/F=    0.00000  %FUEL=100.000000  R,EQ.RATIO= 0.000000  PHI,EQ.RATIO= 0.000000

 THERMODYNAMIC PROPERTIES

 P, BAR            280.00   280.00   280.00   280.00   280.00   280.00   280.00   280.00
 T, K             1500.00  1510.00  1520.00  1530.00  1540.00  1550.00  1560.00  1570.00
 RHO, KG/CU M    4.5258 0 4.4958 0 4.4663 0 4.4371 0 4.4083 0 4.3798 0 4.3517 0 4.3240 0
 H, KJ/KG         18000.9  18161.2  18321.8  18482.6  18643.6  18804.9  18966.3  19128.0
 U, KJ/KG         11814.1  11933.2  12052.6  12172.2  12291.9  12411.9  12532.1  12652.5
 G, KJ/KG        -80215.3 -80870.5 -81526.8 -82184.2 -82842.7 -83502.2 -84162.8 -84824.4
 S, KJ/(KG)(K)    65.4775  65.5839  65.6899  65.7953  65.9002  66.0046  66.1084  66.2117

 M, (1/n)           2.016    2.016    2.016    2.016    2.016    2.016    2.016    2.016
 (dLV/dLP)t      -1.00000 -1.00000 -1.00000 -1.00000 -1.00000 -1.00000 -1.00000 -1.00000
 (dLV/dLT)p        1.0000   1.0000   1.0000   1.0000   1.0000   1.0000   1.0000   1.0000
 Cp, KJ/(KG)(K)   16.0265  16.0481  16.0697  16.0913  16.1128  16.1343  16.1557  16.1770
 GAMMAs            1.3466   1.3459   1.3453   1.3447   1.3441   1.3435   1.3428   1.3422
 SON VEL,M/SEC     2886.3   2895.2   2904.1   2913.0   2921.8   2930.6   2939.4   2948.1

 TRANSPORT PROPERTIES (GASES ONLY)
   CONDUCTIVITY IN UNITS OF MILLIWATTS/(CM)(K)

 VISC,MILLIPOISE  0.27270  0.27398  0.27525  0.27652  0.27779  0.27906  0.28033  0.28159

  WITH EQUILIBRIUM REACTIONS

 Cp, KJ/(KG)(K)   16.0265  16.0481  16.0697  16.0913  16.1128  16.1343  16.1557  16.1770
 CONDUCTIVITY      6.2356   6.2722   6.3090   6.3458   6.3827   6.4196   6.4566   6.4936
 PRANDTL NUMBER    0.7009   0.7010   0.7011   0.7012   0.7013   0.7014   0.7014   0.7015

  WITH FROZEN REACTIONS

 Cp, KJ/(KG)(K)   16.0251  16.0466  16.0680  16.0894  16.1107  16.1319  16.1531  16.1742
 CONDUCTIVITY      6.2346   6.2711   6.3077   6.3444   6.3811   6.4179   6.4546   6.4914
 PRANDTL NUMBER    0.7009   0.7011   0.7012   0.7013   0.7014   0.7014   0.7015   0.7016

 MOLE FRACTIONS

 *H2              1.00000  1.00000  1.00000  1.00000  1.00000  1.00000  1.00000  1.00000

  * THERMODYNAMIC PROPERTIES FITTED TO 20000.K

 NOTE. WEIGHT FRACTION OF FUEL IN TOTAL FUELS AND OF OXIDANT IN TOTAL OXIDANTS









               THERMODYNAMIC EQUILIBRIUM PROPERTIES AT ASSIGNED

                           TEMPERATURE AND PRESSURE

 CASE =                

             REACTANT                    WT FRACTION      ENERGY      TEMP
                                          (SEE NOTE)     KJ/KG-MOL      K  
             H2                           1.0000000         0.000      0.000

 O/F=    0.00000  %FUEL=100.000000  R,EQ.RATIO= 0.000000  PHI,EQ.RATIO= 0.000000

 THERMODYNAMIC PROPERTIES

 P, BAR            280.00   280.00   280.00   280.00   280.00   280.00   280.00   310.00
 T, K             1580.00  1590.00  1600.00  1610.00  1620.00  1630.00  1640.00  1500.00
 RHO, KG/CU M    4.2967 0 4.2696 0 4.2429 0 4.2166 0 4.1906 0 4.1649 0 4.1395 0 5.0107 0
 H, KJ/KG         19289.9  19452.0  19614.3  19776.8  19939.5  20102.4  20265.6  18000.9
 U, KJ/KG         12773.2  12894.0  13015.1  13136.3  13257.8  13379.5  13501.4  11814.1
 G, KJ/KG        -85487.0 -86150.7 -86815.4 -87481.0 -88147.7 -88815.5 -89484.2 -79585.5
 S, KJ/(KG)(K)    66.3145  66.4168  66.5185  66.6198  66.7205  66.8208  66.9206  65.0576

 M, (1/n)           2.016    2.016    2.016    2.016    2.016    2.016    2.016    2.016
 (dLV/dLP)t      -1.00000 -1.00000 -1.00000 -1.00000 -1.00000 -1.00000 -1.00000 -1.00000
 (dLV/dLT)p        1.0000   1.0000   1.0000   1.0000   1.0000   1.0000   1.0000   1.0000
 Cp, KJ/(KG)(K)   16.1984  16.2196  16.2409  16.2620  16.2832  16.3042  16.3253  16.0264
 GAMMAs            1.3416   1.3410   1.3404   1.3398   1.3393   1.3387   1.3381   1.3466
 SON VEL,M/SEC     2956.9   2965.5   2974.2   2982.8   2991.4   3000.0   3008.5   2886.3

 TRANSPORT PROPERTIES (GASES ONLY)
   CONDUCTIVITY IN UNITS OF MILLIWATTS/(CM)(K)

 VISC,MILLIPOISE  0.28286  0.28412  0.28538  0.28664  0.28790  0.28916  0.29042  0.27270

  WITH EQUILIBRIUM REACTIONS

 Cp, KJ/(KG)(K)   16.1984  16.2196  16.2409  16.2620  16.2832  16.3042  16.3253  16.0264
 CONDUCTIVITY      6.5306   6.5677   6.6049   6.6421   6.6793   6.7166   6.7539   6.2354
 PRANDTL NUMBER    0.7016   0.7017   0.7017   0.7018   0.7019   0.7019   0.7020   0.7009

  WITH FROZEN REACTIONS

 Cp, KJ/(KG)(K)   16.1952  16.2161  16.2370  16.2578  16.2785  16.2992  16.3197  16.0251
 CONDUCTIVITY      6.5283   6.5651   6.6020   6.6388   6.6758   6.7127   6.7496   6.2344
 PRANDTL NUMBER    0.7017   0.7018   0.7019   0.7020   0.7020   0.7021   0.7022   0.7010

 MOLE FRACTIONS

 *H2              1.00000  1.00000  1.00000  1.00000  1.00000  1.00000  1.00000  1.00000

  * THERMODYNAMIC PROPERTIES FITTED TO 20000.K

 NOTE. WEIGHT FRACTION OF FUEL IN TOTAL FUELS AND OF OXIDANT IN TOTAL OXIDANTS









               THERMODYNAMIC EQUILIBRIUM PROPERTIES AT ASSIGNED

                           TEMPERATURE AND PRESSURE

 CASE =                

             REACTANT                    WT FRACTION      ENERGY      TEMP
                                          (SEE NOTE)     KJ/KG-MOL      K  
             H2                           1.0000000         0.000      0.000

 O/F=    0.00000  %FUEL=100.000000  R,EQ.RATIO= 0.000000  PHI,EQ.RATIO= 0.000000

 THERMODYNAMIC PROPERTIES

 P, BAR            310.00   310.00   310.00   310.00   310.00   310.00   310.00   310.00
 T, K             1510.00  1520.00  1530.00  1540.00  1550.00  1560.00  1570.00  1580.00
 RHO, KG/CU M    4.9775 0 4.9448 0 4.9125 0 4.8806 0 4.8491 0 4.8180 0 4.7873 0 4.7570 0
 H, KJ/KG         18161.2  18321.8  18482.6  18643.6  18804.9  18966.3  19128.0  19289.9
 U, KJ/KG         11933.2  12052.6  12172.1  12291.9  12411.9  12532.1  12652.5  12773.2
 G, KJ/KG        -80236.6 -80888.7 -81541.9 -82196.2 -82851.5 -83507.9 -84165.3 -84823.7
 S, KJ/(KG)(K)    65.1641  65.2701  65.3755  65.4804  65.5848  65.6886  65.7919  65.8947

 M, (1/n)           2.016    2.016    2.016    2.016    2.016    2.016    2.016    2.016
 (dLV/dLP)t      -1.00000 -1.00000 -1.00000 -1.00000 -1.00000 -1.00000 -1.00000 -1.00000
 (dLV/dLT)p        1.0000   1.0000   1.0000   1.0000   1.0000   1.0000   1.0000   1.0000
 Cp, KJ/(KG)(K)   16.0480  16.0696  16.0912  16.1127  16.1341  16.1555  16.1769  16.1982
 GAMMAs            1.3459   1.3453   1.3447   1.3441   1.3435   1.3428   1.3422   1.3416
 SON VEL,M/SEC     2895.2   2904.1   2913.0   2921.8   2930.6   2939.4   2948.2   2956.9

 TRANSPORT PROPERTIES (GASES ONLY)
   CONDUCTIVITY IN UNITS OF MILLIWATTS/(CM)(K)

 VISC,MILLIPOISE  0.27398  0.27525  0.27652  0.27779  0.27906  0.28033  0.28159  0.28286

  WITH EQUILIBRIUM REACTIONS

 Cp, KJ/(KG)(K)   16.0480  16.0696  16.0912  16.1127  16.1341  16.1555  16.1769  16.1982
 CONDUCTIVITY      6.2721   6.3089   6.3457   6.3826   6.4195   6.4565   6.4935   6.5305
 PRANDTL NUMBER    0.7010   0.7011   0.7012   0.7013   0.7014   0.7014   0.7015   0.7016

  WITH FROZEN REACTIONS

 Cp, KJ/(KG)(K)   16.0466  16.0680  16.0894  16.1107  16.1319  16.1531  16.1742  16.1952
 CONDUCTIVITY      6.2710   6.3077   6.3444   6.3811   6.4179   6.4546   6.4914   6.5283
 PRANDTL NUMBER    0.7011   0.7012   0.7013   0.7014   0.7014   0.7015   0.7016   0.7017

 MOLE FRACTIONS

 *H2              1.00000  1.00000  1.00000  1.00000  1.00000  1.00000  1.00000  1.00000

  * THERMODYNAMIC PROPERTIES FITTED TO 20000.K

 NOTE. WEIGHT FRACTION OF FUEL IN TOTAL FUELS AND OF OXIDANT IN TOTAL OXIDANTS









               THERMODYNAMIC EQUILIBRIUM PROPERTIES AT ASSIGNED

                           TEMPERATURE AND PRESSURE

 CASE =                

             REACTANT                    WT FRACTION      ENERGY      TEMP
                                          (SEE NOTE)     KJ/KG-MOL      K  
             H2                           1.0000000         0.000      0.000

 O/F=    0.00000  %FUEL=100.000000  R,EQ.RATIO= 0.000000  PHI,EQ.RATIO= 0.000000

 THERMODYNAMIC PROPERTIES

 P, BAR            310.00   310.00   310.00   310.00   310.00   310.00   350.00   350.00
 T, K             1590.00  1600.00  1610.00  1620.00  1630.00  1640.00  1500.00  1510.00
 RHO, KG/CU M    4.7271 0 4.6975 0 4.6684 0 4.6395 0 4.6111 0 4.5830 0 5.6573 0 5.6198 0
 H, KJ/KG         19451.9  19614.2  19776.8  19939.5  20102.4  20265.6  18000.9  18161.2
 U, KJ/KG         12894.0  13015.1  13136.3  13257.8  13379.5  13501.4  11814.1  11933.2
 G, KJ/KG        -85483.2 -86143.7 -86805.2 -87467.7 -88131.2 -88795.7 -78834.7 -79480.7
 S, KJ/(KG)(K)    65.9969  66.0987  66.1999  66.3007  66.4010  66.5008  64.5570  64.6635

 M, (1/n)           2.016    2.016    2.016    2.016    2.016    2.016    2.016    2.016
 (dLV/dLP)t      -1.00000 -1.00000 -1.00000 -1.00000 -1.00000 -1.00000 -1.00000 -1.00000
 (dLV/dLT)p        1.0000   1.0000   1.0000   1.0000   1.0000   1.0000   1.0000   1.0000
 Cp, KJ/(KG)(K)   16.2195  16.2407  16.2618  16.2829  16.3040  16.3250  16.0263  16.0480
 GAMMAs            1.3410   1.3404   1.3399   1.3393   1.3387   1.3381   1.3466   1.3459
 SON VEL,M/SEC     2965.5   2974.2   2982.8   2991.4   3000.0   3008.5   2886.3   2895.2

 TRANSPORT PROPERTIES (GASES ONLY)
   CONDUCTIVITY IN UNITS OF MILLIWATTS/(CM)(K)

 VISC,MILLIPOISE  0.28412  0.28538  0.28664  0.28790  0.28916  0.29042  0.27270  0.27398

  WITH EQUILIBRIUM REACTIONS

 Cp, KJ/(KG)(K)   16.2195  16.2407  16.2618  16.2829  16.3040  16.3250  16.0263  16.0480
 CONDUCTIVITY      6.5676   6.6047   6.6419   6.6791   6.7164   6.7537   6.2353   6.2720
 PRANDTL NUMBER    0.7017   0.7017   0.7018   0.7019   0.7019   0.7020   0.7009   0.7010

  WITH FROZEN REACTIONS

 Cp, KJ/(KG)(K)   16.2161  16.2370  16.2578  16.2785  16.2992  16.3197  16.0251  16.0466
 CONDUCTIVITY      6.5651   6.6020   6.6388   6.6758   6.7127   6.7496   6.2344   6.2710
 PRANDTL NUMBER    0.7018   0.7019   0.7020   0.7020   0.7021   0.7022   0.7010   0.7011

 MOLE FRACTIONS

 *H2              1.00000  1.00000  1.00000  1.00000  1.00000  1.00000  1.00000  1.00000

  * THERMODYNAMIC PROPERTIES FITTED TO 20000.K

 NOTE. WEIGHT FRACTION OF FUEL IN TOTAL FUELS AND OF OXIDANT IN TOTAL OXIDANTS









               THERMODYNAMIC EQUILIBRIUM PROPERTIES AT ASSIGNED

                           TEMPERATURE AND PRESSURE

 CASE =                

             REACTANT                    WT FRACTION      ENERGY      TEMP
                                          (SEE NOTE)     KJ/KG-MOL      K  
             H2                           1.0000000         0.000      0.000

 O/F=    0.00000  %FUEL=100.000000  R,EQ.RATIO= 0.000000  PHI,EQ.RATIO= 0.000000

 THERMODYNAMIC PROPERTIES

 P, BAR            350.00   350.00   350.00   350.00   350.00   350.00   350.00   350.00
 T, K             1520.00  1530.00  1540.00  1550.00  1560.00  1570.00  1580.00  1590.00
 RHO, KG/CU M    5.5828 0 5.5463 0 5.5103 0 5.4748 0 5.4397 0 5.4050 0 5.3708 0 5.3370 0
 H, KJ/KG         18321.8  18482.6  18643.6  18804.9  18966.3  19128.0  19289.8  19451.9
 U, KJ/KG         12052.6  12172.1  12291.9  12411.9  12532.1  12652.5  12773.1  12894.0
 G, KJ/KG        -80127.9 -80776.1 -81425.4 -82075.7 -82727.0 -83379.4 -84032.9 -84687.3
 S, KJ/(KG)(K)    64.7695  64.8750  64.9799  65.0842  65.1880  65.2913  65.3941  65.4964

 M, (1/n)           2.016    2.016    2.016    2.016    2.016    2.016    2.016    2.016
 (dLV/dLP)t      -1.00000 -1.00000 -1.00000 -1.00000 -1.00000 -1.00000 -1.00000 -1.00000
 (dLV/dLT)p        1.0000   1.0000   1.0000   1.0000   1.0000   1.0000   1.0000   1.0000
 Cp, KJ/(KG)(K)   16.0695  16.0911  16.1126  16.1340  16.1554  16.1767  16.1980  16.2193
 GAMMAs            1.3453   1.3447   1.3441   1.3435   1.3428   1.3422   1.3416   1.3410
 SON VEL,M/SEC     2904.1   2913.0   2921.8   2930.6   2939.4   2948.2   2956.9   2965.5

 TRANSPORT PROPERTIES (GASES ONLY)
   CONDUCTIVITY IN UNITS OF MILLIWATTS/(CM)(K)

 VISC,MILLIPOISE  0.27525  0.27652  0.27779  0.27906  0.28033  0.28159  0.28286  0.28412

  WITH EQUILIBRIUM REACTIONS

 Cp, KJ/(KG)(K)   16.0695  16.0911  16.1126  16.1340  16.1554  16.1767  16.1980  16.2193
 CONDUCTIVITY      6.3088   6.3456   6.3825   6.4194   6.4564   6.4934   6.5304   6.5675
 PRANDTL NUMBER    0.7011   0.7012   0.7013   0.7014   0.7014   0.7015   0.7016   0.7017

  WITH FROZEN REACTIONS

 Cp, KJ/(KG)(K)   16.0680  16.0894  16.1107  16.1319  16.1531  16.1742  16.1952  16.2161
 CONDUCTIVITY      6.3077   6.3444   6.3811   6.4179   6.4546   6.4914   6.5283   6.5651
 PRANDTL NUMBER    0.7012   0.7013   0.7014   0.7014   0.7015   0.7016   0.7017   0.7018

 MOLE FRACTIONS

 *H2              1.00000  1.00000  1.00000  1.00000  1.00000  1.00000  1.00000  1.00000

  * THERMODYNAMIC PROPERTIES FITTED TO 20000.K

 NOTE. WEIGHT FRACTION OF FUEL IN TOTAL FUELS AND OF OXIDANT IN TOTAL OXIDANTS









               THERMODYNAMIC EQUILIBRIUM PROPERTIES AT ASSIGNED

                           TEMPERATURE AND PRESSURE

 CASE =                

             REACTANT                    WT FRACTION      ENERGY      TEMP
                                          (SEE NOTE)     KJ/KG-MOL      K  
             H2                           1.0000000         0.000      0.000

 O/F=    0.00000  %FUEL=100.000000  R,EQ.RATIO= 0.000000  PHI,EQ.RATIO= 0.000000

 THERMODYNAMIC PROPERTIES

 P, BAR            350.00   350.00   350.00   350.00   350.00   390.00   390.00   390.00
 T, K             1600.00  1610.00  1620.00  1630.00  1640.00  1500.00  1510.00  1520.00
 RHO, KG/CU M    5.3037 0 5.2707 0 5.2382 0 5.2061 0 5.1743 0 6.3038 0 6.2621 0 6.2209 0
 H, KJ/KG         19614.2  19776.7  19939.5  20102.4  20265.5  18000.8  18161.2  18321.8
 U, KJ/KG         13015.0  13136.3  13257.8  13379.5  13501.4  11814.1  11933.2  12052.6
 G, KJ/KG        -85342.8 -85999.3 -86656.8 -87315.3 -87974.8 -78165.2 -78806.8 -79449.4
 S, KJ/(KG)(K)    65.5981  65.6994  65.8001  65.9004  66.0002  64.1107  64.2172  64.3232

 M, (1/n)           2.016    2.016    2.016    2.016    2.016    2.016    2.016    2.016
 (dLV/dLP)t      -1.00000 -1.00000 -1.00000 -1.00000 -1.00000 -1.00000 -1.00000 -1.00000
 (dLV/dLT)p        1.0000   1.0000   1.0000   1.0000   1.0000   1.0000   1.0000   1.0000
 Cp, KJ/(KG)(K)   16.2404  16.2616  16.2827  16.3037  16.3247  16.0263  16.0479  16.0695
 GAMMAs            1.3404   1.3399   1.3393   1.3387   1.3381   1.3466   1.3459   1.3453
 SON VEL,M/SEC     2974.2   2982.8   2991.4   3000.0   3008.5   2886.3   2895.2   2904.1

 TRANSPORT PROPERTIES (GASES ONLY)
   CONDUCTIVITY IN UNITS OF MILLIWATTS/(CM)(K)

 VISC,MILLIPOISE  0.28538  0.28664  0.28790  0.28916  0.29042  0.27270  0.27398  0.27525

  WITH EQUILIBRIUM REACTIONS

 Cp, KJ/(KG)(K)   16.2404  16.2616  16.2827  16.3037  16.3247  16.0263  16.0479  16.0695
 CONDUCTIVITY      6.6046   6.6417   6.6789   6.7162   6.7534   6.2353   6.2720   6.3087
 PRANDTL NUMBER    0.7017   0.7018   0.7019   0.7019   0.7020   0.7009   0.7010   0.7011

  WITH FROZEN REACTIONS

 Cp, KJ/(KG)(K)   16.2370  16.2578  16.2785  16.2992  16.3197  16.0251  16.0466  16.0680
 CONDUCTIVITY      6.6020   6.6388   6.6757   6.7127   6.7496   6.2344   6.2710   6.3077
 PRANDTL NUMBER    0.7019   0.7020   0.7020   0.7021   0.7022   0.7010   0.7011   0.7012

 MOLE FRACTIONS

 *H2              1.00000  1.00000  1.00000  1.00000  1.00000  1.00000  1.00000  1.00000

  * THERMODYNAMIC PROPERTIES FITTED TO 20000.K

 NOTE. WEIGHT FRACTION OF FUEL IN TOTAL FUELS AND OF OXIDANT IN TOTAL OXIDANTS









               THERMODYNAMIC EQUILIBRIUM PROPERTIES AT ASSIGNED

                           TEMPERATURE AND PRESSURE

 CASE =                

             REACTANT                    WT FRACTION      ENERGY      TEMP
                                          (SEE NOTE)     KJ/KG-MOL      K  
             H2                           1.0000000         0.000      0.000

 O/F=    0.00000  %FUEL=100.000000  R,EQ.RATIO= 0.000000  PHI,EQ.RATIO= 0.000000

 THERMODYNAMIC PROPERTIES

 P, BAR            390.00   390.00   390.00   390.00   390.00   390.00   390.00   390.00
 T, K             1530.00  1540.00  1550.00  1560.00  1570.00  1580.00  1590.00  1600.00
 RHO, KG/CU M    6.1802 0 6.1401 0 6.1005 0 6.0614 0 6.0227 0 5.9846 0 5.9470 0 5.9098 0
 H, KJ/KG         18482.6  18643.6  18804.8  18966.3  19128.0  19289.8  19451.9  19614.2
 U, KJ/KG         12172.1  12291.9  12411.9  12532.1  12652.5  12773.1  12894.0  13015.0
 G, KJ/KG        -80093.2 -80738.0 -81383.9 -82030.8 -82678.7 -83327.7 -83977.6 -84628.7
 S, KJ/(KG)(K)    64.4286  64.5335  64.6379  64.7417  64.8450  64.9478  65.0500  65.1518

 M, (1/n)           2.016    2.016    2.016    2.016    2.016    2.016    2.016    2.016
 (dLV/dLP)t      -1.00000 -1.00000 -1.00000 -1.00000 -1.00000 -1.00000 -1.00000 -1.00000
 (dLV/dLT)p        1.0000   1.0000   1.0000   1.0000   1.0000   1.0000   1.0000   1.0000
 Cp, KJ/(KG)(K)   16.0910  16.1125  16.1339  16.1553  16.1766  16.1979  16.2191  16.2403
 GAMMAs            1.3447   1.3441   1.3435   1.3428   1.3422   1.3416   1.3410   1.3405
 SON VEL,M/SEC     2913.0   2921.8   2930.6   2939.4   2948.2   2956.9   2965.6   2974.2

 TRANSPORT PROPERTIES (GASES ONLY)
   CONDUCTIVITY IN UNITS OF MILLIWATTS/(CM)(K)

 VISC,MILLIPOISE  0.27652  0.27779  0.27906  0.28033  0.28159  0.28286  0.28412  0.28538

  WITH EQUILIBRIUM REACTIONS

 Cp, KJ/(KG)(K)   16.0910  16.1125  16.1339  16.1553  16.1766  16.1979  16.2191  16.2403
 CONDUCTIVITY      6.3456   6.3824   6.4193   6.4563   6.4933   6.5303   6.5673   6.6044
 PRANDTL NUMBER    0.7012   0.7013   0.7014   0.7015   0.7015   0.7016   0.7017   0.7018

  WITH FROZEN REACTIONS

 Cp, KJ/(KG)(K)   16.0894  16.1107  16.1319  16.1531  16.1742  16.1952  16.2161  16.2370
 CONDUCTIVITY      6.3444   6.3811   6.4179   6.4546   6.4914   6.5283   6.5651   6.6020
 PRANDTL NUMBER    0.7013   0.7014   0.7014   0.7015   0.7016   0.7017   0.7018   0.7019

 MOLE FRACTIONS

 *H2              1.00000  1.00000  1.00000  1.00000  1.00000  1.00000  1.00000  1.00000

  * THERMODYNAMIC PROPERTIES FITTED TO 20000.K

 NOTE. WEIGHT FRACTION OF FUEL IN TOTAL FUELS AND OF OXIDANT IN TOTAL OXIDANTS









               THERMODYNAMIC EQUILIBRIUM PROPERTIES AT ASSIGNED

                           TEMPERATURE AND PRESSURE

 CASE =                

             REACTANT                    WT FRACTION      ENERGY      TEMP
                                          (SEE NOTE)     KJ/KG-MOL      K  
             H2                           1.0000000         0.000      0.000

 O/F=    0.00000  %FUEL=100.000000  R,EQ.RATIO= 0.000000  PHI,EQ.RATIO= 0.000000

 THERMODYNAMIC PROPERTIES

 P, BAR            390.00   390.00   390.00   390.00   440.00   440.00   440.00   440.00
 T, K             1610.00  1620.00  1630.00  1640.00  1500.00  1510.00  1520.00  1530.00
 RHO, KG/CU M    5.8731 0 5.8369 0 5.8010 0 5.7657 0 7.1120 0 7.0649 0 7.0184 0 6.9725 0
 H, KJ/KG         19776.7  19939.4  20102.4  20265.5  18000.8  18161.2  18321.8  18482.6
 U, KJ/KG         13136.3  13257.8  13379.4  13501.3  11814.1  11933.2  12052.6  12172.1
 G, KJ/KG        -85280.7 -85933.7 -86587.8 -87242.8 -77418.9 -78055.5 -78693.2 -79332.0
 S, KJ/(KG)(K)    65.2530  65.3538  65.4541  65.5538  63.6132  63.7197  63.8256  63.9311

 M, (1/n)           2.016    2.016    2.016    2.016    2.016    2.016    2.016    2.016
 (dLV/dLP)t      -1.00000 -1.00000 -1.00000 -1.00000 -1.00000 -1.00000 -1.00000 -1.00000
 (dLV/dLT)p        1.0000   1.0000   1.0000   1.0000   1.0000   1.0000   1.0000   1.0000
 Cp, KJ/(KG)(K)   16.2614  16.2825  16.3035  16.3244  16.0262  16.0478  16.0694  16.0909
 GAMMAs            1.3399   1.3393   1.3387   1.3381   1.3466   1.3459   1.3453   1.3447
 SON VEL,M/SEC     2982.8   2991.4   3000.0   3008.5   2886.3   2895.2   2904.1   2913.0

 TRANSPORT PROPERTIES (GASES ONLY)
   CONDUCTIVITY IN UNITS OF MILLIWATTS/(CM)(K)

 VISC,MILLIPOISE  0.28664  0.28790  0.28916  0.29042  0.27270  0.27398  0.27525  0.27652

  WITH EQUILIBRIUM REACTIONS

 Cp, KJ/(KG)(K)   16.2614  16.2825  16.3035  16.3244  16.0262  16.0478  16.0694  16.0909
 CONDUCTIVITY      6.6416   6.6787   6.7160   6.7532   6.2352   6.2719   6.3087   6.3455
 PRANDTL NUMBER    0.7018   0.7019   0.7020   0.7020   0.7009   0.7010   0.7011   0.7012

  WITH FROZEN REACTIONS

 Cp, KJ/(KG)(K)   16.2578  16.2785  16.2992  16.3197  16.0251  16.0466  16.0680  16.0894
 CONDUCTIVITY      6.6388   6.6757   6.7127   6.7496   6.2344   6.2710   6.3077   6.3444
 PRANDTL NUMBER    0.7020   0.7020   0.7021   0.7022   0.7010   0.7011   0.7012   0.7013

 MOLE FRACTIONS

 *H2              1.00000  1.00000  1.00000  1.00000  1.00000  1.00000  1.00000  1.00000

  * THERMODYNAMIC PROPERTIES FITTED TO 20000.K

 NOTE. WEIGHT FRACTION OF FUEL IN TOTAL FUELS AND OF OXIDANT IN TOTAL OXIDANTS









               THERMODYNAMIC EQUILIBRIUM PROPERTIES AT ASSIGNED

                           TEMPERATURE AND PRESSURE

 CASE =                

             REACTANT                    WT FRACTION      ENERGY      TEMP
                                          (SEE NOTE)     KJ/KG-MOL      K  
             H2                           1.0000000         0.000      0.000

 O/F=    0.00000  %FUEL=100.000000  R,EQ.RATIO= 0.000000  PHI,EQ.RATIO= 0.000000

 THERMODYNAMIC PROPERTIES

 P, BAR            440.00   440.00   440.00   440.00   440.00   440.00   440.00   440.00
 T, K             1540.00  1550.00  1560.00  1570.00  1580.00  1590.00  1600.00  1610.00
 RHO, KG/CU M    6.9273 0 6.8826 0 6.8385 0 6.7949 0 6.7519 0 6.7094 0 6.6675 0 6.6261 0
 H, KJ/KG         18643.6  18804.8  18966.3  19127.9  19289.8  19451.9  19614.2  19776.7
 U, KJ/KG         12291.9  12411.9  12532.1  12652.5  12773.1  12893.9  13015.0  13136.3
 G, KJ/KG        -79971.8 -80612.7 -81254.6 -81897.6 -82541.6 -83186.6 -83832.6 -84479.7
 S, KJ/(KG)(K)    64.0360  64.1403  64.2442  64.3475  64.4502  64.5525  64.6542  64.7555

 M, (1/n)           2.016    2.016    2.016    2.016    2.016    2.016    2.016    2.016
 (dLV/dLP)t      -1.00000 -1.00000 -1.00000 -1.00000 -1.00000 -1.00000 -1.00000 -1.00000
 (dLV/dLT)p        1.0000   1.0000   1.0000   1.0000   1.0000   1.0000   1.0000   1.0000
 Cp, KJ/(KG)(K)   16.1124  16.1338  16.1551  16.1765  16.1977  16.2189  16.2401  16.2612
 GAMMAs            1.3441   1.3435   1.3429   1.3422   1.3416   1.3410   1.3405   1.3399
 SON VEL,M/SEC     2921.8   2930.6   2939.4   2948.2   2956.9   2965.6   2974.2   2982.8

 TRANSPORT PROPERTIES (GASES ONLY)
   CONDUCTIVITY IN UNITS OF MILLIWATTS/(CM)(K)

 VISC,MILLIPOISE  0.27779  0.27906  0.28033  0.28159  0.28286  0.28412  0.28538  0.28664

  WITH EQUILIBRIUM REACTIONS

 Cp, KJ/(KG)(K)   16.1124  16.1338  16.1551  16.1765  16.1977  16.2189  16.2401  16.2612
 CONDUCTIVITY      6.3823   6.4192   6.4562   6.4931   6.5302   6.5672   6.6043   6.6414
 PRANDTL NUMBER    0.7013   0.7014   0.7015   0.7015   0.7016   0.7017   0.7018   0.7018

  WITH FROZEN REACTIONS

 Cp, KJ/(KG)(K)   16.1107  16.1319  16.1531  16.1742  16.1952  16.2161  16.2370  16.2578
 CONDUCTIVITY      6.3811   6.4179   6.4546   6.4914   6.5283   6.5651   6.6020   6.6388
 PRANDTL NUMBER    0.7014   0.7014   0.7015   0.7016   0.7017   0.7018   0.7019   0.7020

 MOLE FRACTIONS

 *H2              1.00000  1.00000  1.00000  1.00000  1.00000  1.00000  1.00000  1.00000

  * THERMODYNAMIC PROPERTIES FITTED TO 20000.K

 NOTE. WEIGHT FRACTION OF FUEL IN TOTAL FUELS AND OF OXIDANT IN TOTAL OXIDANTS









               THERMODYNAMIC EQUILIBRIUM PROPERTIES AT ASSIGNED

                           TEMPERATURE AND PRESSURE

 CASE =                

             REACTANT                    WT FRACTION      ENERGY      TEMP
                                          (SEE NOTE)     KJ/KG-MOL      K  
             H2                           1.0000000         0.000      0.000

 O/F=    0.00000  %FUEL=100.000000  R,EQ.RATIO= 0.000000  PHI,EQ.RATIO= 0.000000

 THERMODYNAMIC PROPERTIES

 P, BAR            440.00   440.00   440.00   490.00   490.00   490.00   490.00   490.00
 T, K             1620.00  1630.00  1640.00  1500.00  1510.00  1520.00  1530.00  1540.00
 RHO, KG/CU M    6.5852 0 6.5448 0 6.5049 0 7.9202 0 7.8677 0 7.8160 0 7.7649 0 7.7145 0
 H, KJ/KG         19939.4  20102.3  20265.5  18000.8  18161.2  18321.8  18482.6  18643.6
 U, KJ/KG         13257.7  13379.4  13501.3  11814.1  11933.2  12052.6  12172.1  12291.9
 G, KJ/KG        -85127.7 -85776.8 -86426.8 -76753.0 -77385.2 -78018.4 -78652.8 -79288.2
 S, KJ/(KG)(K)    64.8562  64.9565  65.0563  63.1692  63.2757  63.3817  63.4872  63.5921

 M, (1/n)           2.016    2.016    2.016    2.016    2.016    2.016    2.016    2.016
 (dLV/dLP)t      -1.00000 -1.00000 -1.00000 -1.00000 -1.00000 -1.00000 -1.00000 -1.00000
 (dLV/dLT)p        1.0000   1.0000   1.0000   1.0000   1.0000   1.0000   1.0000   1.0000
 Cp, KJ/(KG)(K)   16.2822  16.3032  16.3242  16.0261  16.0477  16.0693  16.0908  16.1123
 GAMMAs            1.3393   1.3387   1.3381   1.3466   1.3459   1.3453   1.3447   1.3441
 SON VEL,M/SEC     2991.4   3000.0   3008.5   2886.3   2895.2   2904.1   2913.0   2921.8

 TRANSPORT PROPERTIES (GASES ONLY)
   CONDUCTIVITY IN UNITS OF MILLIWATTS/(CM)(K)

 VISC,MILLIPOISE  0.28790  0.28916  0.29042  0.27270  0.27398  0.27525  0.27652  0.27779

  WITH EQUILIBRIUM REACTIONS

 Cp, KJ/(KG)(K)   16.2822  16.3032  16.3242  16.0261  16.0477  16.0693  16.0908  16.1123
 CONDUCTIVITY      6.6786   6.7158   6.7530   6.2352   6.2719   6.3086   6.3454   6.3823
 PRANDTL NUMBER    0.7019   0.7020   0.7020   0.7009   0.7010   0.7011   0.7012   0.7013

  WITH FROZEN REACTIONS

 Cp, KJ/(KG)(K)   16.2785  16.2992  16.3197  16.0251  16.0466  16.0680  16.0894  16.1107
 CONDUCTIVITY      6.6757   6.7127   6.7496   6.2344   6.2710   6.3077   6.3444   6.3811
 PRANDTL NUMBER    0.7020   0.7021   0.7022   0.7010   0.7011   0.7012   0.7013   0.7014

 MOLE FRACTIONS

 *H2              1.00000  1.00000  1.00000  1.00000  1.00000  1.00000  1.00000  1.00000

  * THERMODYNAMIC PROPERTIES FITTED TO 20000.K

 NOTE. WEIGHT FRACTION OF FUEL IN TOTAL FUELS AND OF OXIDANT IN TOTAL OXIDANTS









               THERMODYNAMIC EQUILIBRIUM PROPERTIES AT ASSIGNED

                           TEMPERATURE AND PRESSURE

 CASE =                

             REACTANT                    WT FRACTION      ENERGY      TEMP
                                          (SEE NOTE)     KJ/KG-MOL      K  
             H2                           1.0000000         0.000      0.000

 O/F=    0.00000  %FUEL=100.000000  R,EQ.RATIO= 0.000000  PHI,EQ.RATIO= 0.000000

 THERMODYNAMIC PROPERTIES

 P, BAR            490.00   490.00   490.00   490.00   490.00   490.00   490.00   490.00
 T, K             1550.00  1560.00  1570.00  1580.00  1590.00  1600.00  1610.00  1620.00
 RHO, KG/CU M    7.6647 0 7.6155 0 7.5670 0 7.5191 0 7.4719 0 7.4252 0 7.3790 0 7.3335 0
 H, KJ/KG         18804.8  18966.3  19127.9  19289.8  19451.9  19614.2  19776.7  19939.4
 U, KJ/KG         12411.9  12532.1  12652.5  12773.1  12893.9  13015.0  13136.2  13257.7
 G, KJ/KG        -79924.6 -80562.1 -81200.6 -81840.2 -82480.7 -83122.3 -83764.9 -84408.6
 S, KJ/(KG)(K)    63.6964  63.8002  63.9035  64.0063  64.1086  64.2103  64.3116  64.4123

 M, (1/n)           2.016    2.016    2.016    2.016    2.016    2.016    2.016    2.016
 (dLV/dLP)t      -1.00000 -1.00000 -1.00000 -1.00000 -1.00000 -1.00000 -1.00000 -1.00000
 (dLV/dLT)p        1.0000   1.0000   1.0000   1.0000   1.0000   1.0000   1.0000   1.0000
 Cp, KJ/(KG)(K)   16.1337  16.1550  16.1763  16.1976  16.2188  16.2399  16.2610  16.2820
 GAMMAs            1.3435   1.3429   1.3423   1.3416   1.3411   1.3405   1.3399   1.3393
 SON VEL,M/SEC     2930.7   2939.4   2948.2   2956.9   2965.6   2974.2   2982.8   2991.4

 TRANSPORT PROPERTIES (GASES ONLY)
   CONDUCTIVITY IN UNITS OF MILLIWATTS/(CM)(K)

 VISC,MILLIPOISE  0.27906  0.28033  0.28159  0.28286  0.28412  0.28538  0.28664  0.28790

  WITH EQUILIBRIUM REACTIONS

 Cp, KJ/(KG)(K)   16.1337  16.1550  16.1763  16.1976  16.2188  16.2399  16.2610  16.2820
 CONDUCTIVITY      6.4192   6.4561   6.4931   6.5301   6.5671   6.6042   6.6413   6.6784
 PRANDTL NUMBER    0.7014   0.7015   0.7015   0.7016   0.7017   0.7018   0.7018   0.7019

  WITH FROZEN REACTIONS

 Cp, KJ/(KG)(K)   16.1319  16.1531  16.1742  16.1952  16.2161  16.2370  16.2578  16.2785
 CONDUCTIVITY      6.4179   6.4546   6.4914   6.5283   6.5651   6.6020   6.6388   6.6757
 PRANDTL NUMBER    0.7014   0.7015   0.7016   0.7017   0.7018   0.7019   0.7020   0.7020

 MOLE FRACTIONS

 *H2              1.00000  1.00000  1.00000  1.00000  1.00000  1.00000  1.00000  1.00000

  * THERMODYNAMIC PROPERTIES FITTED TO 20000.K

 NOTE. WEIGHT FRACTION OF FUEL IN TOTAL FUELS AND OF OXIDANT IN TOTAL OXIDANTS









               THERMODYNAMIC EQUILIBRIUM PROPERTIES AT ASSIGNED

                           TEMPERATURE AND PRESSURE

 CASE =                

             REACTANT                    WT FRACTION      ENERGY      TEMP
                                          (SEE NOTE)     KJ/KG-MOL      K  
             H2                           1.0000000         0.000      0.000

 O/F=    0.00000  %FUEL=100.000000  R,EQ.RATIO= 0.000000  PHI,EQ.RATIO= 0.000000

 THERMODYNAMIC PROPERTIES

 P, BAR            490.00   490.00   540.00   540.00   540.00   540.00   540.00   540.00
 T, K             1630.00  1640.00  1500.00  1510.00  1520.00  1530.00  1540.00  1550.00
 RHO, KG/CU M    7.2885 0 7.2441 0 8.7283 0 8.6705 0 8.6135 0 8.5572 0 8.5016 0 8.4468 0
 H, KJ/KG         20102.3  20265.5  18000.8  18161.2  18321.8  18482.6  18643.6  18804.8
 U, KJ/KG         13379.4  13501.3  11814.1  11933.2  12052.6  12172.1  12291.9  12411.9
 G, KJ/KG        -85053.2 -85698.8 -76151.9 -76780.0 -77409.3 -78039.6 -78671.0 -79303.4
 S, KJ/(KG)(K)    64.5126  64.6124  62.7685  62.8750  62.9810  63.0864  63.1913  63.2957

 M, (1/n)           2.016    2.016    2.016    2.016    2.016    2.016    2.016    2.016
 (dLV/dLP)t      -1.00000 -1.00000 -1.00000 -1.00000 -1.00000 -1.00000 -1.00000 -1.00000
 (dLV/dLT)p        1.0000   1.0000   1.0000   1.0000   1.0000   1.0000   1.0000   1.0000
 Cp, KJ/(KG)(K)   16.3030  16.3239  16.0261  16.0477  16.0692  16.0907  16.1122  16.1336
 GAMMAs            1.3387   1.3381   1.3466   1.3459   1.3453   1.3447   1.3441   1.3435
 SON VEL,M/SEC     3000.0   3008.5   2886.3   2895.2   2904.1   2913.0   2921.8   2930.7

 TRANSPORT PROPERTIES (GASES ONLY)
   CONDUCTIVITY IN UNITS OF MILLIWATTS/(CM)(K)

 VISC,MILLIPOISE  0.28916  0.29042  0.27270  0.27398  0.27525  0.27652  0.27779  0.27906

  WITH EQUILIBRIUM REACTIONS

 Cp, KJ/(KG)(K)   16.3030  16.3239  16.0261  16.0477  16.0692  16.0907  16.1122  16.1336
 CONDUCTIVITY      6.7156   6.7529   6.2351   6.2718   6.3086   6.3454   6.3822   6.4191
 PRANDTL NUMBER    0.7020   0.7020   0.7009   0.7010   0.7011   0.7012   0.7013   0.7014

  WITH FROZEN REACTIONS

 Cp, KJ/(KG)(K)   16.2992  16.3197  16.0251  16.0466  16.0680  16.0894  16.1107  16.1319
 CONDUCTIVITY      6.7127   6.7496   6.2344   6.2710   6.3077   6.3444   6.3811   6.4179
 PRANDTL NUMBER    0.7021   0.7022   0.7010   0.7011   0.7012   0.7013   0.7014   0.7014

 MOLE FRACTIONS

 *H2              1.00000  1.00000  1.00000  1.00000  1.00000  1.00000  1.00000  1.00000

  * THERMODYNAMIC PROPERTIES FITTED TO 20000.K

 NOTE. WEIGHT FRACTION OF FUEL IN TOTAL FUELS AND OF OXIDANT IN TOTAL OXIDANTS









               THERMODYNAMIC EQUILIBRIUM PROPERTIES AT ASSIGNED

                           TEMPERATURE AND PRESSURE

 CASE =                

             REACTANT                    WT FRACTION      ENERGY      TEMP
                                          (SEE NOTE)     KJ/KG-MOL      K  
             H2                           1.0000000         0.000      0.000

 O/F=    0.00000  %FUEL=100.000000  R,EQ.RATIO= 0.000000  PHI,EQ.RATIO= 0.000000

 THERMODYNAMIC PROPERTIES

 P, BAR            540.00   540.00   540.00   540.00   540.00   540.00   540.00   540.00
 T, K             1560.00  1570.00  1580.00  1590.00  1600.00  1610.00  1620.00  1630.00
 RHO, KG/CU M    8.3926 0 8.3392 0 8.2864 0 8.2343 0 8.1828 0 8.1320 0 8.0818 0 8.0322 0
 H, KJ/KG         18966.3  19127.9  19289.8  19451.9  19614.2  19776.7  19939.4  20102.3
 U, KJ/KG         12532.1  12652.5  12773.1  12893.9  13015.0  13136.2  13257.7  13379.4
 G, KJ/KG        -79936.9 -80571.4 -81207.0 -81843.5 -82481.1 -83119.7 -83759.3 -84400.0
 S, KJ/(KG)(K)    63.3995  63.5028  63.6055  63.7078  63.8096  63.9108  64.0116  64.1118

 M, (1/n)           2.016    2.016    2.016    2.016    2.016    2.016    2.016    2.016
 (dLV/dLP)t      -1.00000 -1.00000 -1.00000 -1.00000 -1.00000 -1.00000 -1.00000 -1.00000
 (dLV/dLT)p        1.0000   1.0000   1.0000   1.0000   1.0000   1.0000   1.0000   1.0000
 Cp, KJ/(KG)(K)   16.1549  16.1762  16.1975  16.2187  16.2398  16.2608  16.2819  16.3028
 GAMMAs            1.3429   1.3423   1.3417   1.3411   1.3405   1.3399   1.3393   1.3387
 SON VEL,M/SEC     2939.4   2948.2   2956.9   2965.6   2974.2   2982.8   2991.4   3000.0

 TRANSPORT PROPERTIES (GASES ONLY)
   CONDUCTIVITY IN UNITS OF MILLIWATTS/(CM)(K)

 VISC,MILLIPOISE  0.28033  0.28159  0.28286  0.28412  0.28538  0.28664  0.28790  0.28916

  WITH EQUILIBRIUM REACTIONS

 Cp, KJ/(KG)(K)   16.1549  16.1762  16.1975  16.2187  16.2398  16.2608  16.2819  16.3028
 CONDUCTIVITY      6.4560   6.4930   6.5300   6.5670   6.6041   6.6412   6.6783   6.7155
 PRANDTL NUMBER    0.7015   0.7015   0.7016   0.7017   0.7018   0.7018   0.7019   0.7020

  WITH FROZEN REACTIONS

 Cp, KJ/(KG)(K)   16.1531  16.1742  16.1952  16.2161  16.2370  16.2578  16.2785  16.2992
 CONDUCTIVITY      6.4546   6.4914   6.5283   6.5651   6.6020   6.6388   6.6757   6.7127
 PRANDTL NUMBER    0.7015   0.7016   0.7017   0.7018   0.7019   0.7020   0.7020   0.7021

 MOLE FRACTIONS

 *H2              1.00000  1.00000  1.00000  1.00000  1.00000  1.00000  1.00000  1.00000

  * THERMODYNAMIC PROPERTIES FITTED TO 20000.K

 NOTE. WEIGHT FRACTION OF FUEL IN TOTAL FUELS AND OF OXIDANT IN TOTAL OXIDANTS









               THERMODYNAMIC EQUILIBRIUM PROPERTIES AT ASSIGNED

                           TEMPERATURE AND PRESSURE

 CASE =                

             REACTANT                    WT FRACTION      ENERGY      TEMP
                                          (SEE NOTE)     KJ/KG-MOL      K  
             H2                           1.0000000         0.000      0.000

 O/F=    0.00000  %FUEL=100.000000  R,EQ.RATIO= 0.000000  PHI,EQ.RATIO= 0.000000

 THERMODYNAMIC PROPERTIES

 P, BAR            540.00   600.00   600.00   600.00   600.00   600.00   600.00   600.00
 T, K             1640.00  1500.00  1510.00  1520.00  1530.00  1540.00  1550.00  1560.00
 RHO, KG/CU M    7.9832 0 9.6982 0 9.6339 0 9.5706 0 9.5080 0 9.4463 0 9.3853 0 9.3252 0
 H, KJ/KG         20265.4  18000.8  18161.2  18321.8  18482.6  18643.6  18804.8  18966.3
 U, KJ/KG         13501.3  11814.1  11933.2  12052.5  12172.1  12291.9  12411.9  12532.0
 G, KJ/KG        -85041.6 -75500.0 -76123.8 -76748.8 -77374.7 -78001.8 -78629.9 -79259.0
 S, KJ/(KG)(K)    64.2116  62.3339  62.4404  62.5464  62.6518  62.7567  62.8611  62.9649

 M, (1/n)           2.016    2.016    2.016    2.016    2.016    2.016    2.016    2.016
 (dLV/dLP)t      -1.00000 -1.00000 -1.00000 -1.00000 -1.00000 -1.00000 -1.00000 -1.00000
 (dLV/dLT)p        1.0000   1.0000   1.0000   1.0000   1.0000   1.0000   1.0000   1.0000
 Cp, KJ/(KG)(K)   16.3237  16.0260  16.0476  16.0692  16.0907  16.1121  16.1335  16.1548
 GAMMAs            1.3381   1.3466   1.3459   1.3453   1.3447   1.3441   1.3435   1.3429
 SON VEL,M/SEC     3008.5   2886.3   2895.3   2904.1   2913.0   2921.9   2930.7   2939.4

 TRANSPORT PROPERTIES (GASES ONLY)
   CONDUCTIVITY IN UNITS OF MILLIWATTS/(CM)(K)

 VISC,MILLIPOISE  0.29042  0.27270  0.27398  0.27525  0.27652  0.27779  0.27906  0.28033

  WITH EQUILIBRIUM REACTIONS

 Cp, KJ/(KG)(K)   16.3237  16.0260  16.0476  16.0692  16.0907  16.1121  16.1335  16.1548
 CONDUCTIVITY      6.7527   6.2351   6.2718   6.3085   6.3453   6.3822   6.4190   6.4560
 PRANDTL NUMBER    0.7020   0.7009   0.7010   0.7011   0.7012   0.7013   0.7014   0.7015

  WITH FROZEN REACTIONS

 Cp, KJ/(KG)(K)   16.3197  16.0251  16.0466  16.0680  16.0894  16.1107  16.1319  16.1531
 CONDUCTIVITY      6.7496   6.2344   6.2710   6.3077   6.3444   6.3811   6.4178   6.4546
 PRANDTL NUMBER    0.7022   0.7010   0.7011   0.7012   0.7013   0.7014   0.7014   0.7015

 MOLE FRACTIONS

 *H2              1.00000  1.00000  1.00000  1.00000  1.00000  1.00000  1.00000  1.00000

  * THERMODYNAMIC PROPERTIES FITTED TO 20000.K

 NOTE. WEIGHT FRACTION OF FUEL IN TOTAL FUELS AND OF OXIDANT IN TOTAL OXIDANTS









               THERMODYNAMIC EQUILIBRIUM PROPERTIES AT ASSIGNED

                           TEMPERATURE AND PRESSURE

 CASE =                

             REACTANT                    WT FRACTION      ENERGY      TEMP
                                          (SEE NOTE)     KJ/KG-MOL      K  
             H2                           1.0000000         0.000      0.000

 O/F=    0.00000  %FUEL=100.000000  R,EQ.RATIO= 0.000000  PHI,EQ.RATIO= 0.000000

 THERMODYNAMIC PROPERTIES

 P, BAR            600.00   600.00   600.00   600.00   600.00   600.00   600.00   600.00
 T, K             1570.00  1580.00  1590.00  1600.00  1610.00  1620.00  1630.00  1640.00
 RHO, KG/CU M    9.2658 0 9.2071 0 9.1492 0 9.0920 0 9.0356 0 8.9798 0 8.9247 0 8.8703 0
 H, KJ/KG         19127.9  19289.8  19451.9  19614.1  19776.6  19939.4  20102.3  20265.4
 U, KJ/KG         12652.5  12773.1  12893.9  13015.0  13136.2  13257.7  13379.4  13501.2
 G, KJ/KG        -79889.2 -80520.4 -81152.6 -81785.8 -82420.1 -83055.3 -83691.6 -84328.9
 S, KJ/(KG)(K)    63.0682  63.1710  63.2732  63.3750  63.4762  63.5770  63.6772  63.7770

 M, (1/n)           2.016    2.016    2.016    2.016    2.016    2.016    2.016    2.016
 (dLV/dLP)t      -1.00000 -1.00000 -1.00000 -1.00000 -1.00000 -1.00000 -1.00000 -1.00000
 (dLV/dLT)p        1.0000   1.0000   1.0000   1.0000   1.0000   1.0000   1.0000   1.0000
 Cp, KJ/(KG)(K)   16.1761  16.1974  16.2185  16.2396  16.2607  16.2817  16.3026  16.3235
 GAMMAs            1.3423   1.3417   1.3411   1.3405   1.3399   1.3393   1.3387   1.3381
 SON VEL,M/SEC     2948.2   2956.9   2965.6   2974.2   2982.8   2991.4   3000.0   3008.5

 TRANSPORT PROPERTIES (GASES ONLY)
   CONDUCTIVITY IN UNITS OF MILLIWATTS/(CM)(K)

 VISC,MILLIPOISE  0.28159  0.28286  0.28412  0.28538  0.28664  0.28790  0.28916  0.29042

  WITH EQUILIBRIUM REACTIONS

 Cp, KJ/(KG)(K)   16.1761  16.1974  16.2185  16.2396  16.2607  16.2817  16.3026  16.3235
 CONDUCTIVITY      6.4929   6.5299   6.5669   6.6039   6.6410   6.6782   6.7153   6.7525
 PRANDTL NUMBER    0.7015   0.7016   0.7017   0.7018   0.7018   0.7019   0.7020   0.7020

  WITH FROZEN REACTIONS

 Cp, KJ/(KG)(K)   16.1742  16.1952  16.2161  16.2370  16.2578  16.2785  16.2992  16.3197
 CONDUCTIVITY      6.4914   6.5283   6.5651   6.6020   6.6388   6.6757   6.7127   6.7496
 PRANDTL NUMBER    0.7016   0.7017   0.7018   0.7019   0.7020   0.7020   0.7021   0.7022

 MOLE FRACTIONS

 *H2              1.00000  1.00000  1.00000  1.00000  1.00000  1.00000  1.00000  1.00000

  * THERMODYNAMIC PROPERTIES FITTED TO 20000.K

 NOTE. WEIGHT FRACTION OF FUEL IN TOTAL FUELS AND OF OXIDANT IN TOTAL OXIDANTS









               THERMODYNAMIC EQUILIBRIUM PROPERTIES AT ASSIGNED

                           TEMPERATURE AND PRESSURE

 CASE =                

             REACTANT                    WT FRACTION      ENERGY      TEMP
                                          (SEE NOTE)     KJ/KG-MOL      K  
             H2                           1.0000000         0.000      0.000

 O/F=    0.00000  %FUEL=100.000000  R,EQ.RATIO= 0.000000  PHI,EQ.RATIO= 0.000000

 THERMODYNAMIC PROPERTIES

 P, BAR            670.00   670.00   670.00   670.00   670.00   670.00   670.00   670.00
 T, K             1500.00  1510.00  1520.00  1530.00  1540.00  1550.00  1560.00  1570.00
 RHO, KG/CU M    1.0830 1 1.0758 1 1.0687 1 1.0617 1 1.0548 1 1.0480 1 1.0413 1 1.0347 1
 H, KJ/KG         18000.8  18161.2  18321.8  18482.6  18643.6  18804.8  18966.2  19127.9
 U, KJ/KG         11814.1  11933.2  12052.5  12172.1  12291.9  12411.8  12532.0  12652.4
 G, KJ/KG        -74817.3 -75436.6 -76057.0 -76678.4 -77300.9 -77924.4 -78549.0 -79174.6
 S, KJ/(KG)(K)    61.8788  61.9853  62.0913  62.1967  62.3016  62.4059  62.5098  62.6131

 M, (1/n)           2.016    2.016    2.016    2.016    2.016    2.016    2.016    2.016
 (dLV/dLP)t      -1.00000 -1.00000 -1.00000 -1.00000 -1.00000 -1.00000 -1.00000 -1.00000
 (dLV/dLT)p        1.0000   1.0000   1.0000   1.0000   1.0000   1.0000   1.0000   1.0000
 Cp, KJ/(KG)(K)   16.0260  16.0476  16.0691  16.0906  16.1120  16.1334  16.1547  16.1760
 GAMMAs            1.3466   1.3459   1.3453   1.3447   1.3441   1.3435   1.3429   1.3423
 SON VEL,M/SEC     2886.3   2895.3   2904.2   2913.0   2921.9   2930.7   2939.4   2948.2

 TRANSPORT PROPERTIES (GASES ONLY)
   CONDUCTIVITY IN UNITS OF MILLIWATTS/(CM)(K)

 VISC,MILLIPOISE  0.27270  0.27398  0.27525  0.27652  0.27779  0.27906  0.28033  0.28159

  WITH EQUILIBRIUM REACTIONS

 Cp, KJ/(KG)(K)   16.0260  16.0476  16.0691  16.0906  16.1120  16.1334  16.1547  16.1760
 CONDUCTIVITY      6.2351   6.2717   6.3085   6.3453   6.3821   6.4190   6.4559   6.4928
 PRANDTL NUMBER    0.7009   0.7010   0.7011   0.7012   0.7013   0.7014   0.7015   0.7016

  WITH FROZEN REACTIONS

 Cp, KJ/(KG)(K)   16.0251  16.0466  16.0680  16.0894  16.1107  16.1319  16.1531  16.1742
 CONDUCTIVITY      6.2344   6.2710   6.3077   6.3444   6.3811   6.4178   6.4546   6.4914
 PRANDTL NUMBER    0.7010   0.7011   0.7012   0.7013   0.7014   0.7014   0.7015   0.7016

 MOLE FRACTIONS

 *H2              1.00000  1.00000  1.00000  1.00000  1.00000  1.00000  1.00000  1.00000

  * THERMODYNAMIC PROPERTIES FITTED TO 20000.K

 NOTE. WEIGHT FRACTION OF FUEL IN TOTAL FUELS AND OF OXIDANT IN TOTAL OXIDANTS









               THERMODYNAMIC EQUILIBRIUM PROPERTIES AT ASSIGNED

                           TEMPERATURE AND PRESSURE

 CASE =                

             REACTANT                    WT FRACTION      ENERGY      TEMP
                                          (SEE NOTE)     KJ/KG-MOL      K  
             H2                           1.0000000         0.000      0.000

 O/F=    0.00000  %FUEL=100.000000  R,EQ.RATIO= 0.000000  PHI,EQ.RATIO= 0.000000

 THERMODYNAMIC PROPERTIES

 P, BAR            670.00   670.00   670.00   670.00   670.00   670.00   670.00   740.00
 T, K             1580.00  1590.00  1600.00  1610.00  1620.00  1630.00  1640.00  1500.00
 RHO, KG/CU M    1.0281 1 1.0217 1 1.0153 1 1.0090 1 1.0027 1 9.9659 0 9.9051 0 1.1961 1
 H, KJ/KG         19289.8  19451.8  19614.1  19776.6  19939.3  20102.3  20265.4  18000.8
 U, KJ/KG         12773.1  12893.9  13014.9  13136.2  13257.7  13379.3  13501.2  11814.1
 G, KJ/KG        -79801.3 -80428.9 -81057.6 -81687.3 -82318.0 -82949.8 -83582.5 -74202.5
 S, KJ/(KG)(K)    62.7158  62.8181  62.9198  63.0211  63.1218  63.2221  63.3219  61.4689

 M, (1/n)           2.016    2.016    2.016    2.016    2.016    2.016    2.016    2.016
 (dLV/dLP)t      -1.00000 -1.00000 -1.00000 -1.00000 -1.00000 -1.00000 -1.00000 -1.00000
 (dLV/dLT)p        1.0000   1.0000   1.0000   1.0000   1.0000   1.0000   1.0000   1.0000
 Cp, KJ/(KG)(K)   16.1972  16.2184  16.2395  16.2605  16.2815  16.3025  16.3233  16.0259
 GAMMAs            1.3417   1.3411   1.3405   1.3399   1.3393   1.3387   1.3381   1.3466
 SON VEL,M/SEC     2956.9   2965.6   2974.2   2982.8   2991.4   3000.0   3008.6   2886.3

 TRANSPORT PROPERTIES (GASES ONLY)
   CONDUCTIVITY IN UNITS OF MILLIWATTS/(CM)(K)

 VISC,MILLIPOISE  0.28286  0.28412  0.28538  0.28664  0.28790  0.28916  0.29042  0.27270

  WITH EQUILIBRIUM REACTIONS

 Cp, KJ/(KG)(K)   16.1972  16.2184  16.2395  16.2605  16.2815  16.3025  16.3233  16.0259
 CONDUCTIVITY      6.5298   6.5668   6.6038   6.6409   6.6780   6.7152   6.7524   6.2350
 PRANDTL NUMBER    0.7016   0.7017   0.7018   0.7019   0.7019   0.7020   0.7021   0.7009

  WITH FROZEN REACTIONS

 Cp, KJ/(KG)(K)   16.1952  16.2161  16.2370  16.2578  16.2785  16.2992  16.3197  16.0251
 CONDUCTIVITY      6.5282   6.5651   6.6020   6.6388   6.6757   6.7127   6.7496   6.2344
 PRANDTL NUMBER    0.7017   0.7018   0.7019   0.7020   0.7020   0.7021   0.7022   0.7010

 MOLE FRACTIONS

 *H2              1.00000  1.00000  1.00000  1.00000  1.00000  1.00000  1.00000  1.00000

  * THERMODYNAMIC PROPERTIES FITTED TO 20000.K

 NOTE. WEIGHT FRACTION OF FUEL IN TOTAL FUELS AND OF OXIDANT IN TOTAL OXIDANTS









               THERMODYNAMIC EQUILIBRIUM PROPERTIES AT ASSIGNED

                           TEMPERATURE AND PRESSURE

 CASE =                

             REACTANT                    WT FRACTION      ENERGY      TEMP
                                          (SEE NOTE)     KJ/KG-MOL      K  
             H2                           1.0000000         0.000      0.000

 O/F=    0.00000  %FUEL=100.000000  R,EQ.RATIO= 0.000000  PHI,EQ.RATIO= 0.000000

 THERMODYNAMIC PROPERTIES

 P, BAR            740.00   740.00   740.00   740.00   740.00   740.00   740.00   740.00
 T, K             1510.00  1520.00  1530.00  1540.00  1550.00  1560.00  1570.00  1580.00
 RHO, KG/CU M    1.1882 1 1.1804 1 1.1727 1 1.1650 1 1.1575 1 1.1501 1 1.1428 1 1.1355 1
 H, KJ/KG         18161.2  18321.8  18482.6  18643.6  18804.8  18966.2  19127.9  19289.8
 U, KJ/KG         11933.2  12052.5  12172.1  12291.9  12411.8  12532.0  12652.4  12773.1
 G, KJ/KG        -74817.7 -75434.0 -76051.3 -76669.7 -77289.1 -77909.6 -78531.1 -79153.7
 S, KJ/(KG)(K)    61.5754  61.6814  61.7868  61.8917  61.9961  62.0999  62.2032  62.3060

 M, (1/n)           2.016    2.016    2.016    2.016    2.016    2.016    2.016    2.016
 (dLV/dLP)t      -1.00000 -1.00000 -1.00000 -1.00000 -1.00000 -1.00000 -1.00000 -1.00000
 (dLV/dLT)p        1.0000   1.0000   1.0000   1.0000   1.0000   1.0000   1.0000   1.0000
 Cp, KJ/(KG)(K)   16.0475  16.0691  16.0905  16.1120  16.1333  16.1547  16.1759  16.1971
 GAMMAs            1.3459   1.3453   1.3447   1.3441   1.3435   1.3429   1.3423   1.3417
 SON VEL,M/SEC     2895.3   2904.2   2913.0   2921.9   2930.7   2939.4   2948.2   2956.9

 TRANSPORT PROPERTIES (GASES ONLY)
   CONDUCTIVITY IN UNITS OF MILLIWATTS/(CM)(K)

 VISC,MILLIPOISE  0.27398  0.27525  0.27652  0.27779  0.27906  0.28033  0.28159  0.28286

  WITH EQUILIBRIUM REACTIONS

 Cp, KJ/(KG)(K)   16.0475  16.0691  16.0905  16.1120  16.1333  16.1547  16.1759  16.1971
 CONDUCTIVITY      6.2717   6.3084   6.3452   6.3821   6.4189   6.4558   6.4928   6.5297
 PRANDTL NUMBER    0.7010   0.7011   0.7012   0.7013   0.7014   0.7015   0.7016   0.7016

  WITH FROZEN REACTIONS

 Cp, KJ/(KG)(K)   16.0466  16.0680  16.0894  16.1107  16.1319  16.1531  16.1742  16.1952
 CONDUCTIVITY      6.2710   6.3077   6.3444   6.3811   6.4178   6.4546   6.4914   6.5282
 PRANDTL NUMBER    0.7011   0.7012   0.7013   0.7014   0.7014   0.7015   0.7016   0.7017

 MOLE FRACTIONS

 *H2              1.00000  1.00000  1.00000  1.00000  1.00000  1.00000  1.00000  1.00000

  * THERMODYNAMIC PROPERTIES FITTED TO 20000.K

 NOTE. WEIGHT FRACTION OF FUEL IN TOTAL FUELS AND OF OXIDANT IN TOTAL OXIDANTS









               THERMODYNAMIC EQUILIBRIUM PROPERTIES AT ASSIGNED

                           TEMPERATURE AND PRESSURE

 CASE =                

             REACTANT                    WT FRACTION      ENERGY      TEMP
                                          (SEE NOTE)     KJ/KG-MOL      K  
             H2                           1.0000000         0.000      0.000

 O/F=    0.00000  %FUEL=100.000000  R,EQ.RATIO= 0.000000  PHI,EQ.RATIO= 0.000000

 THERMODYNAMIC PROPERTIES

 P, BAR            740.00   740.00   740.00   740.00   740.00   740.00   825.00   825.00
 T, K             1590.00  1600.00  1610.00  1620.00  1630.00  1640.00  1500.00  1510.00
 RHO, KG/CU M    1.1284 1 1.1214 1 1.1144 1 1.1075 1 1.1007 1 1.0940 1 1.3335 1 1.3247 1
 H, KJ/KG         19451.8  19614.1  19776.6  19939.3  20102.2  20265.4  18000.8  18161.2
 U, KJ/KG         12893.9  13014.9  13136.2  13257.7  13379.3  13501.2  11814.1  11933.2
 G, KJ/KG        -79777.2 -80401.8 -81027.4 -81654.1 -82281.7 -82910.3 -73529.8 -74140.5
 S, KJ/(KG)(K)    62.4082  62.5100  62.6112  62.7120  62.8122  62.9120  61.0204  61.1269

 M, (1/n)           2.016    2.016    2.016    2.016    2.016    2.016    2.016    2.016
 (dLV/dLP)t      -1.00000 -1.00000 -1.00000 -1.00000 -1.00000 -1.00000 -1.00000 -1.00000
 (dLV/dLT)p        1.0000   1.0000   1.0000   1.0000   1.0000   1.0000   1.0000   1.0000
 Cp, KJ/(KG)(K)   16.2183  16.2394  16.2604  16.2814  16.3023  16.3232  16.0259  16.0475
 GAMMAs            1.3411   1.3405   1.3399   1.3393   1.3387   1.3381   1.3466   1.3459
 SON VEL,M/SEC     2965.6   2974.2   2982.9   2991.4   3000.0   3008.6   2886.3   2895.3

 TRANSPORT PROPERTIES (GASES ONLY)
   CONDUCTIVITY IN UNITS OF MILLIWATTS/(CM)(K)

 VISC,MILLIPOISE  0.28412  0.28538  0.28664  0.28790  0.28916  0.29042  0.27270  0.27398

  WITH EQUILIBRIUM REACTIONS

 Cp, KJ/(KG)(K)   16.2183  16.2394  16.2604  16.2814  16.3023  16.3232  16.0259  16.0475
 CONDUCTIVITY      6.5667   6.6037   6.6408   6.6779   6.7151   6.7522   6.2350   6.2717
 PRANDTL NUMBER    0.7017   0.7018   0.7019   0.7019   0.7020   0.7021   0.7009   0.7010

  WITH FROZEN REACTIONS

 Cp, KJ/(KG)(K)   16.2161  16.2370  16.2578  16.2785  16.2992  16.3197  16.0251  16.0466
 CONDUCTIVITY      6.5651   6.6020   6.6388   6.6757   6.7127   6.7496   6.2344   6.2710
 PRANDTL NUMBER    0.7018   0.7019   0.7020   0.7020   0.7021   0.7022   0.7010   0.7011

 MOLE FRACTIONS

 *H2              1.00000  1.00000  1.00000  1.00000  1.00000  1.00000  1.00000  1.00000

  * THERMODYNAMIC PROPERTIES FITTED TO 20000.K

 NOTE. WEIGHT FRACTION OF FUEL IN TOTAL FUELS AND OF OXIDANT IN TOTAL OXIDANTS









               THERMODYNAMIC EQUILIBRIUM PROPERTIES AT ASSIGNED

                           TEMPERATURE AND PRESSURE

 CASE =                

             REACTANT                    WT FRACTION      ENERGY      TEMP
                                          (SEE NOTE)     KJ/KG-MOL      K  
             H2                           1.0000000         0.000      0.000

 O/F=    0.00000  %FUEL=100.000000  R,EQ.RATIO= 0.000000  PHI,EQ.RATIO= 0.000000

 THERMODYNAMIC PROPERTIES

 P, BAR            825.00   825.00   825.00   825.00   825.00   825.00   825.00   825.00
 T, K             1520.00  1530.00  1540.00  1550.00  1560.00  1570.00  1580.00  1590.00
 RHO, KG/CU M    1.3160 1 1.3074 1 1.2989 1 1.2905 1 1.2822 1 1.2740 1 1.2660 1 1.2580 1
 H, KJ/KG         18321.8  18482.6  18643.6  18804.8  18966.2  19127.9  19289.7  19451.8
 U, KJ/KG         12052.5  12172.1  12291.8  12411.8  12532.0  12652.4  12773.0  12893.9
 G, KJ/KG        -74752.3 -75365.1 -75979.0 -76594.0 -77210.0 -77827.0 -78445.1 -79064.2
 S, KJ/(KG)(K)    61.2329  61.3384  61.4433  61.5476  61.6514  61.7547  61.8575  61.9597

 M, (1/n)           2.016    2.016    2.016    2.016    2.016    2.016    2.016    2.016
 (dLV/dLP)t      -1.00000 -1.00000 -1.00000 -1.00000 -1.00000 -1.00000 -1.00000 -1.00000
 (dLV/dLT)p        1.0000   1.0000   1.0000   1.0000   1.0000   1.0000   1.0000   1.0000
 Cp, KJ/(KG)(K)   16.0690  16.0905  16.1119  16.1333  16.1546  16.1758  16.1970  16.2182
 GAMMAs            1.3453   1.3447   1.3441   1.3435   1.3429   1.3423   1.3417   1.3411
 SON VEL,M/SEC     2904.2   2913.0   2921.9   2930.7   2939.4   2948.2   2956.9   2965.6

 TRANSPORT PROPERTIES (GASES ONLY)
   CONDUCTIVITY IN UNITS OF MILLIWATTS/(CM)(K)

 VISC,MILLIPOISE  0.27525  0.27652  0.27779  0.27906  0.28033  0.28159  0.28286  0.28412

  WITH EQUILIBRIUM REACTIONS

 Cp, KJ/(KG)(K)   16.0690  16.0905  16.1119  16.1333  16.1546  16.1758  16.1970  16.2182
 CONDUCTIVITY      6.3084   6.3452   6.3820   6.4189   6.4558   6.4927   6.5296   6.5666
 PRANDTL NUMBER    0.7011   0.7012   0.7013   0.7014   0.7015   0.7016   0.7016   0.7017

  WITH FROZEN REACTIONS

 Cp, KJ/(KG)(K)   16.0680  16.0894  16.1107  16.1319  16.1531  16.1742  16.1952  16.2161
 CONDUCTIVITY      6.3077   6.3444   6.3811   6.4178   6.4546   6.4914   6.5282   6.5651
 PRANDTL NUMBER    0.7012   0.7013   0.7014   0.7014   0.7015   0.7016   0.7017   0.7018

 MOLE FRACTIONS

 *H2              1.00000  1.00000  1.00000  1.00000  1.00000  1.00000  1.00000  1.00000

  * THERMODYNAMIC PROPERTIES FITTED TO 20000.K

 NOTE. WEIGHT FRACTION OF FUEL IN TOTAL FUELS AND OF OXIDANT IN TOTAL OXIDANTS









               THERMODYNAMIC EQUILIBRIUM PROPERTIES AT ASSIGNED

                           TEMPERATURE AND PRESSURE

 CASE =                

             REACTANT                    WT FRACTION      ENERGY      TEMP
                                          (SEE NOTE)     KJ/KG-MOL      K  
             H2                           1.0000000         0.000      0.000

 O/F=    0.00000  %FUEL=100.000000  R,EQ.RATIO= 0.000000  PHI,EQ.RATIO= 0.000000

 THERMODYNAMIC PROPERTIES

 P, BAR            825.00   825.00   825.00   825.00   825.00   910.00   910.00   910.00
 T, K             1600.00  1610.00  1620.00  1630.00  1640.00  1500.00  1510.00  1520.00
 RHO, KG/CU M    1.2502 1 1.2424 1 1.2347 1 1.2271 1 1.2197 1 1.4709 1 1.4611 1 1.4515 1
 H, KJ/KG         19614.1  19776.6  19939.3  20102.2  20265.4  18000.8  18161.2  18321.8
 U, KJ/KG         13014.9  13136.2  13257.6  13379.3  13501.2  11814.1  11933.2  12052.5
 G, KJ/KG        -79684.3 -80305.4 -80927.5 -81550.7 -82174.8 -72923.1 -73529.8 -74137.5
 S, KJ/(KG)(K)    62.0615  62.1627  62.2635  62.3637  62.4635  60.6160  60.7225  60.8285

 M, (1/n)           2.016    2.016    2.016    2.016    2.016    2.016    2.016    2.016
 (dLV/dLP)t      -1.00000 -1.00000 -1.00000 -1.00000 -1.00000 -1.00000 -1.00000 -1.00000
 (dLV/dLT)p        1.0000   1.0000   1.0000   1.0000   1.0000   1.0000   1.0000   1.0000
 Cp, KJ/(KG)(K)   16.2392  16.2603  16.2812  16.3021  16.3230  16.0259  16.0474  16.0690
 GAMMAs            1.3405   1.3399   1.3393   1.3387   1.3381   1.3466   1.3459   1.3453
 SON VEL,M/SEC     2974.2   2982.9   2991.5   3000.0   3008.6   2886.3   2895.3   2904.2

 TRANSPORT PROPERTIES (GASES ONLY)
   CONDUCTIVITY IN UNITS OF MILLIWATTS/(CM)(K)

 VISC,MILLIPOISE  0.28538  0.28664  0.28790  0.28916  0.29042  0.27270  0.27398  0.27525

  WITH EQUILIBRIUM REACTIONS

 Cp, KJ/(KG)(K)   16.2392  16.2603  16.2812  16.3021  16.3230  16.0259  16.0474  16.0690
 CONDUCTIVITY      6.6037   6.6407   6.6778   6.7149   6.7521   6.2350   6.2716   6.3084
 PRANDTL NUMBER    0.7018   0.7019   0.7019   0.7020   0.7021   0.7009   0.7010   0.7011

  WITH FROZEN REACTIONS

 Cp, KJ/(KG)(K)   16.2370  16.2578  16.2785  16.2992  16.3197  16.0251  16.0466  16.0680
 CONDUCTIVITY      6.6020   6.6388   6.6757   6.7127   6.7496   6.2344   6.2710   6.3077
 PRANDTL NUMBER    0.7019   0.7020   0.7020   0.7021   0.7022   0.7010   0.7011   0.7012

 MOLE FRACTIONS

 *H2              1.00000  1.00000  1.00000  1.00000  1.00000  1.00000  1.00000  1.00000

  * THERMODYNAMIC PROPERTIES FITTED TO 20000.K

 NOTE. WEIGHT FRACTION OF FUEL IN TOTAL FUELS AND OF OXIDANT IN TOTAL OXIDANTS









               THERMODYNAMIC EQUILIBRIUM PROPERTIES AT ASSIGNED

                           TEMPERATURE AND PRESSURE

 CASE =                

             REACTANT                    WT FRACTION      ENERGY      TEMP
                                          (SEE NOTE)     KJ/KG-MOL      K  
             H2                           1.0000000         0.000      0.000

 O/F=    0.00000  %FUEL=100.000000  R,EQ.RATIO= 0.000000  PHI,EQ.RATIO= 0.000000

 THERMODYNAMIC PROPERTIES

 P, BAR            910.00   910.00   910.00   910.00   910.00   910.00   910.00   910.00
 T, K             1530.00  1540.00  1550.00  1560.00  1570.00  1580.00  1590.00  1600.00
 RHO, KG/CU M    1.4420 1 1.4327 1 1.4234 1 1.4143 1 1.4053 1 1.3964 1 1.3876 1 1.3790 1
 H, KJ/KG         18482.5  18643.6  18804.8  18966.2  19127.9  19289.7  19451.8  19614.1
 U, KJ/KG         12172.1  12291.8  12411.8  12532.0  12652.4  12773.0  12893.9  13014.9
 G, KJ/KG        -74746.3 -75356.2 -75967.1 -76579.0 -77192.0 -77806.0 -78421.1 -79037.2
 S, KJ/(KG)(K)    60.9339  61.0388  61.1431  61.2470  61.3503  61.4530  61.5553  61.6570

 M, (1/n)           2.016    2.016    2.016    2.016    2.016    2.016    2.016    2.016
 (dLV/dLP)t      -1.00000 -1.00000 -1.00000 -1.00000 -1.00000 -1.00000 -1.00000 -1.00000
 (dLV/dLT)p        1.0000   1.0000   1.0000   1.0000   1.0000   1.0000   1.0000   1.0000
 Cp, KJ/(KG)(K)   16.0904  16.1118  16.1332  16.1545  16.1758  16.1969  16.2181  16.2391
 GAMMAs            1.3447   1.3441   1.3435   1.3429   1.3423   1.3417   1.3411   1.3405
 SON VEL,M/SEC     2913.0   2921.9   2930.7   2939.4   2948.2   2956.9   2965.6   2974.2

 TRANSPORT PROPERTIES (GASES ONLY)
   CONDUCTIVITY IN UNITS OF MILLIWATTS/(CM)(K)

 VISC,MILLIPOISE  0.27652  0.27779  0.27906  0.28033  0.28159  0.28286  0.28412  0.28538

  WITH EQUILIBRIUM REACTIONS

 Cp, KJ/(KG)(K)   16.0904  16.1118  16.1332  16.1545  16.1758  16.1969  16.2181  16.2391
 CONDUCTIVITY      6.3451   6.3820   6.4188   6.4557   6.4926   6.5296   6.5666   6.6036
 PRANDTL NUMBER    0.7012   0.7013   0.7014   0.7015   0.7016   0.7016   0.7017   0.7018

  WITH FROZEN REACTIONS

 Cp, KJ/(KG)(K)   16.0894  16.1107  16.1319  16.1531  16.1742  16.1952  16.2161  16.2370
 CONDUCTIVITY      6.3444   6.3811   6.4178   6.4546   6.4914   6.5282   6.5651   6.6020
 PRANDTL NUMBER    0.7013   0.7014   0.7014   0.7015   0.7016   0.7017   0.7018   0.7019

 MOLE FRACTIONS

 *H2              1.00000  1.00000  1.00000  1.00000  1.00000  1.00000  1.00000  1.00000

  * THERMODYNAMIC PROPERTIES FITTED TO 20000.K

 NOTE. WEIGHT FRACTION OF FUEL IN TOTAL FUELS AND OF OXIDANT IN TOTAL OXIDANTS









               THERMODYNAMIC EQUILIBRIUM PROPERTIES AT ASSIGNED

                           TEMPERATURE AND PRESSURE

 CASE =                

             REACTANT                    WT FRACTION      ENERGY      TEMP
                                          (SEE NOTE)     KJ/KG-MOL      K  
             H2                           1.0000000         0.000      0.000

 O/F=    0.00000  %FUEL=100.000000  R,EQ.RATIO= 0.000000  PHI,EQ.RATIO= 0.000000

 THERMODYNAMIC PROPERTIES

 P, BAR            910.00   910.00   910.00   910.00
 T, K             1610.00  1620.00  1630.00  1640.00
 RHO, KG/CU M    1.3704 1 1.3619 1 1.3536 1 1.3453 1
 H, KJ/KG         19776.6  19939.3  20102.2  20265.3
 U, KJ/KG         13136.2  13257.6  13379.3  13501.2
 G, KJ/KG        -79654.2 -80272.3 -80891.4 -81511.5
 S, KJ/(KG)(K)    61.7583  61.8590  61.9593  62.0590

 M, (1/n)           2.016    2.016    2.016    2.016
 (dLV/dLP)t      -1.00000 -1.00000 -1.00000 -1.00000
 (dLV/dLT)p        1.0000   1.0000   1.0000   1.0000
 Cp, KJ/(KG)(K)   16.2601  16.2811  16.3020  16.3228
 GAMMAs            1.3399   1.3393   1.3387   1.3381
 SON VEL,M/SEC     2982.9   2991.5   3000.0   3008.6

 TRANSPORT PROPERTIES (GASES ONLY)
   CONDUCTIVITY IN UNITS OF MILLIWATTS/(CM)(K)

 VISC,MILLIPOISE  0.28664  0.28790  0.28916  0.29042

  WITH EQUILIBRIUM REACTIONS

 Cp, KJ/(KG)(K)   16.2601  16.2811  16.3020  16.3228
 CONDUCTIVITY      6.6406   6.6777   6.7148   6.7520
 PRANDTL NUMBER    0.7019   0.7019   0.7020   0.7021

  WITH FROZEN REACTIONS

 Cp, KJ/(KG)(K)   16.2578  16.2785  16.2992  16.3197
 CONDUCTIVITY      6.6388   6.6757   6.7127   6.7496
 PRANDTL NUMBER    0.7020   0.7020   0.7021   0.7022

 MOLE FRACTIONS

 *H2              1.00000  1.00000  1.00000  1.00000

  * THERMODYNAMIC PROPERTIES FITTED TO 20000.K

 NOTE. WEIGHT FRACTION OF FUEL IN TOTAL FUELS AND OF OXIDANT IN TOTAL OXIDANTS



  
