
 *******************************************************************************

         NASA-GLENN CHEMICAL EQUILIBRIUM PROGRAM CEA2, MAY 21, 2004
                   BY  BONNIE MCBRIDE AND SANFORD GORDON
      REFS: NASA RP-1311, PART I, 1994 AND NASA RP-1311, PART II, 1996

 *******************************************************************************



  prob tp ions
  p,bar= 60.0,67.0,74.0,82.5,91.0,100.0,110.0,120.0,132.0,148.0,165.0,180.0,200.0
 ,225.0,250.0
  t,k= 6300,6310,6320,6330,6340,6350,6360,6370,6380,6390,6400,6410,6420,6430,6440
  
  reac
  na H2                wt%=100.0000
  
  output short
  output siunits
  output transport
  
 end





               THERMODYNAMIC EQUILIBRIUM PROPERTIES AT ASSIGNED

                           TEMPERATURE AND PRESSURE

 CASE =                

             REACTANT                    WT FRACTION      ENERGY      TEMP
                                          (SEE NOTE)     KJ/KG-MOL      K  
             H2                           1.0000000         0.000      0.000

 O/F=    0.00000  %FUEL=100.000000  R,EQ.RATIO= 0.000000  PHI,EQ.RATIO= 0.000000

 THERMODYNAMIC PROPERTIES

 P, BAR            60.000   60.000   60.000   60.000   60.000   60.000   60.000   60.000
 T, K             6300.00  6310.00  6320.00  6330.00  6340.00  6350.00  6360.00  6370.00
 RHO, KG/CU M    1.2853-1 1.2818-1 1.2783-1 1.2749-1 1.2715-1 1.2681-1 1.2647-1 1.2614-1
 H, KJ/KG        293180.7 293858.0 294530.9 295199.3 295863.2 296522.7 297177.9 297828.6
 U, KJ/KG        246497.8 247047.9 247593.9 248135.7 248673.5 249207.1 249736.7 250262.3
 G, KJ/KG       -566797.8-568163.4-569530.0-570897.7-572266.5-573636.3-575007.2-576379.0
 S, KJ/(KG)(K)   136.5045 136.6120 136.7185 136.8242 136.9290 137.0329 137.1360 137.2383

 M, (1/n)           1.122    1.121    1.120    1.118    1.117    1.116    1.115    1.113
 (dLV/dLP)t      -1.08104 -1.08043 -1.07983 -1.07922 -1.07862 -1.07802 -1.07742 -1.07683
 (dLV/dLT)p        1.7190   1.7125   1.7060   1.6995   1.6931   1.6867   1.6804   1.6741
 Cp, KJ/(KG)(K)   67.9578  67.5080  67.0605  66.6154  66.1728  65.7326  65.2949  64.8597
 GAMMAs            1.3178   1.3189   1.3201   1.3213   1.3224   1.3236   1.3248   1.3260
 SON VEL,M/SEC     7843.4   7857.5   7871.6   7885.7   7899.7   7913.7   7927.8   7941.8

 TRANSPORT PROPERTIES (GASES ONLY)
   CONDUCTIVITY IN UNITS OF MILLIWATTS/(CM)(K)

 VISC,MILLIPOISE  0.79266  0.79261  0.79257  0.79254  0.79251  0.79249  0.79248  0.79247

  WITH EQUILIBRIUM REACTIONS

 Cp, KJ/(KG)(K)   67.9578  67.5080  67.0605  66.6154  66.1728  65.7326  65.2949  64.8597
 CONDUCTIVITY     87.6776  87.0886  86.5033  85.9215  85.3435  84.7692  84.1987  83.6320
 PRANDTL NUMBER    0.6144   0.6144   0.6144   0.6145   0.6145   0.6145   0.6146   0.6146

  WITH FROZEN REACTIONS

 Cp, KJ/(KG)(K)   20.6706  20.6704  20.6702  20.6700  20.6698  20.6696  20.6694  20.6692
 CONDUCTIVITY     23.0595  23.0675  23.0756  23.0839  23.0924  23.1010  23.1098  23.1187
 PRANDTL NUMBER    0.7105   0.7102   0.7100   0.7097   0.7094   0.7091   0.7088   0.7085

 MOLE FRACTIONS

 *e-              0.00001  0.00001  0.00002  0.00002  0.00002  0.00002  0.00002  0.00002
 *H               0.88673  0.88799  0.88924  0.89047  0.89169  0.89289  0.89408  0.89525
 *H+              0.00001  0.00001  0.00001  0.00002  0.00002  0.00002  0.00002  0.00002
 *H2              0.11324  0.11198  0.11073  0.10950  0.10828  0.10708  0.10589  0.10471

  * THERMODYNAMIC PROPERTIES FITTED TO 20000.K

 NOTE. WEIGHT FRACTION OF FUEL IN TOTAL FUELS AND OF OXIDANT IN TOTAL OXIDANTS









               THERMODYNAMIC EQUILIBRIUM PROPERTIES AT ASSIGNED

                           TEMPERATURE AND PRESSURE

 CASE =                

             REACTANT                    WT FRACTION      ENERGY      TEMP
                                          (SEE NOTE)     KJ/KG-MOL      K  
             H2                           1.0000000         0.000      0.000

 O/F=    0.00000  %FUEL=100.000000  R,EQ.RATIO= 0.000000  PHI,EQ.RATIO= 0.000000

 THERMODYNAMIC PROPERTIES

 P, BAR            60.000   60.000   60.000   60.000   60.000   60.000   60.000   67.000
 T, K             6380.00  6390.00  6400.00  6410.00  6420.00  6430.00  6440.00  6300.00
 RHO, KG/CU M    1.2581-1 1.2548-1 1.2516-1 1.2483-1 1.2451-1 1.2420-1 1.2388-1 1.4485-1
 H, KJ/KG        298475.1 299117.2 299755.0 300388.6 301017.9 301643.1 302264.1 289386.0
 U, KJ/KG        250783.9 251301.5 251815.2 252325.0 252830.8 253332.8 253830.9 243130.7
 G, KJ/KG       -577751.9-579125.8-580500.7-581876.6-583253.5-584631.4-586010.2-561669.8
 S, KJ/(KG)(K)   137.3397 137.4402 137.5400 137.6389 137.7370 137.8343 137.9308 135.0882

 M, (1/n)           1.112    1.111    1.110    1.109    1.108    1.107    1.106    1.132
 (dLV/dLP)t      -1.07624 -1.07564 -1.07506 -1.07447 -1.07389 -1.07330 -1.07273 -1.08578
 (dLV/dLT)p        1.6678   1.6616   1.6555   1.6493   1.6432   1.6372   1.6311   1.7611
 Cp, KJ/(KG)(K)   64.4272  63.9973  63.5701  63.1457  62.7240  62.3050  61.8890  70.2685
 GAMMAs            1.3272   1.3284   1.3295   1.3308   1.3320   1.3332   1.3344   1.3128
 SON VEL,M/SEC     7955.7   7969.7   7983.6   7997.5   8011.4   8025.3   8039.2   7792.5

 TRANSPORT PROPERTIES (GASES ONLY)
   CONDUCTIVITY IN UNITS OF MILLIWATTS/(CM)(K)

 VISC,MILLIPOISE  0.79247  0.79247  0.79248  0.79250  0.79252  0.79254  0.79258  0.80210

  WITH EQUILIBRIUM REACTIONS

 Cp, KJ/(KG)(K)   64.4272  63.9973  63.5701  63.1457  62.7240  62.3050  61.8890  70.2685
 CONDUCTIVITY     83.0692  82.5103  81.9553  81.4043  80.8574  80.3144  79.7756  91.6663
 PRANDTL NUMBER    0.6146   0.6147   0.6147   0.6147   0.6148   0.6148   0.6149   0.6149

  WITH FROZEN REACTIONS

 Cp, KJ/(KG)(K)   20.6690  20.6688  20.6686  20.6684  20.6682  20.6680  20.6678  20.6755
 CONDUCTIVITY     23.1278  23.1371  23.1465  23.1561  23.1659  23.1758  23.1859  23.2651
 PRANDTL NUMBER    0.7082   0.7079   0.7076   0.7074   0.7071   0.7068   0.7065   0.7128

 MOLE FRACTIONS

 *e-              0.00002  0.00002  0.00002  0.00002  0.00002  0.00002  0.00002  0.00001
 *H               0.89642  0.89756  0.89870  0.89982  0.90092  0.90202  0.90310  0.87644
 *H+              0.00002  0.00002  0.00002  0.00002  0.00002  0.00002  0.00002  0.00001
 *H2              0.10355  0.10240  0.10127  0.10015  0.09904  0.09794  0.09686  0.12353

  * THERMODYNAMIC PROPERTIES FITTED TO 20000.K

 NOTE. WEIGHT FRACTION OF FUEL IN TOTAL FUELS AND OF OXIDANT IN TOTAL OXIDANTS









               THERMODYNAMIC EQUILIBRIUM PROPERTIES AT ASSIGNED

                           TEMPERATURE AND PRESSURE

 CASE =                

             REACTANT                    WT FRACTION      ENERGY      TEMP
                                          (SEE NOTE)     KJ/KG-MOL      K  
             H2                           1.0000000         0.000      0.000

 O/F=    0.00000  %FUEL=100.000000  R,EQ.RATIO= 0.000000  PHI,EQ.RATIO= 0.000000

 THERMODYNAMIC PROPERTIES

 P, BAR            67.000   67.000   67.000   67.000   67.000   67.000   67.000   67.000
 T, K             6310.00  6320.00  6330.00  6340.00  6350.00  6360.00  6370.00  6380.00
 RHO, KG/CU M    1.4445-1 1.4405-1 1.4365-1 1.4325-1 1.4286-1 1.4248-1 1.4209-1 1.4171-1
 H, KJ/KG        290086.4 290782.4 291474.0 292161.2 292844.0 293522.5 294196.5 294866.3
 U, KJ/KG        243702.1 244269.3 244832.4 245391.4 245946.4 246497.3 247044.2 247587.1
 G, KJ/KG       -563021.3-564373.8-565727.4-567082.2-568438.0-569794.9-571152.8-572511.8
 S, KJ/(KG)(K)   135.1993 135.3095 135.4189 135.5274 135.6350 135.7417 135.8476 135.9527

 M, (1/n)           1.131    1.130    1.128    1.127    1.126    1.125    1.123    1.122
 (dLV/dLP)t      -1.08518 -1.08458 -1.08398 -1.08338 -1.08279 -1.08219 -1.08159 -1.08100
 (dLV/dLT)p        1.7545   1.7480   1.7415   1.7351   1.7286   1.7223   1.7159   1.7096
 Cp, KJ/(KG)(K)   69.8235  69.3802  68.9387  68.4992  68.0615  67.6258  67.1922  66.7607
 GAMMAs            1.3139   1.3150   1.3161   1.3172   1.3183   1.3195   1.3206   1.3217
 SON VEL,M/SEC     7806.7   7820.8   7834.9   7849.0   7863.0   7877.1   7891.1   7905.1

 TRANSPORT PROPERTIES (GASES ONLY)
   CONDUCTIVITY IN UNITS OF MILLIWATTS/(CM)(K)

 VISC,MILLIPOISE  0.80204  0.80198  0.80192  0.80187  0.80182  0.80178  0.80175  0.80172

  WITH EQUILIBRIUM REACTIONS

 Cp, KJ/(KG)(K)   69.8235  69.3802  68.9387  68.4992  68.0615  67.6258  67.1922  66.7607
 CONDUCTIVITY     91.0740  90.4846  89.8983  89.3150  88.7349  88.1580  87.5844  87.0141
 PRANDTL NUMBER    0.6149   0.6149   0.6150   0.6150   0.6150   0.6150   0.6151   0.6151

  WITH FROZEN REACTIONS

 Cp, KJ/(KG)(K)   20.6754  20.6752  20.6750  20.6748  20.6746  20.6744  20.6742  20.6740
 CONDUCTIVITY     23.2722  23.2795  23.2869  23.2944  23.3021  23.3100  23.3180  23.3262
 PRANDTL NUMBER    0.7125   0.7123   0.7120   0.7117   0.7114   0.7111   0.7108   0.7106

 MOLE FRACTIONS

 *e-              0.00001  0.00001  0.00001  0.00001  0.00002  0.00002  0.00002  0.00002
 *H               0.87778  0.87912  0.88044  0.88174  0.88303  0.88430  0.88556  0.88680
 *H+              0.00001  0.00001  0.00001  0.00001  0.00001  0.00002  0.00002  0.00002
 *H2              0.12219  0.12085  0.11953  0.11823  0.11694  0.11567  0.11441  0.11316

  * THERMODYNAMIC PROPERTIES FITTED TO 20000.K

 NOTE. WEIGHT FRACTION OF FUEL IN TOTAL FUELS AND OF OXIDANT IN TOTAL OXIDANTS









               THERMODYNAMIC EQUILIBRIUM PROPERTIES AT ASSIGNED

                           TEMPERATURE AND PRESSURE

 CASE =                

             REACTANT                    WT FRACTION      ENERGY      TEMP
                                          (SEE NOTE)     KJ/KG-MOL      K  
             H2                           1.0000000         0.000      0.000

 O/F=    0.00000  %FUEL=100.000000  R,EQ.RATIO= 0.000000  PHI,EQ.RATIO= 0.000000

 THERMODYNAMIC PROPERTIES

 P, BAR            67.000   67.000   67.000   67.000   67.000   67.000   74.000   74.000
 T, K             6390.00  6400.00  6410.00  6420.00  6430.00  6440.00  6300.00  6310.00
 RHO, KG/CU M    1.4133-1 1.4096-1 1.4059-1 1.4022-1 1.3985-1 1.3949-1 1.6139-1 1.6093-1
 H, KJ/KG        295531.8 296192.9 296849.9 297502.5 298151.0 298795.3 285817.2 286537.6
 U, KJ/KG        248126.1 248661.0 249192.1 249719.2 250242.5 250761.8 239964.3 240553.9
 G, KJ/KG       -573871.9-575233.0-576595.1-577958.2-579322.4-580687.5-557093.2-558431.7
 S, KJ/(KG)(K)   136.0569 136.1603 136.2629 136.3646 136.4655 136.5657 133.7953 133.9096

 M, (1/n)           1.121    1.120    1.118    1.117    1.116    1.115    1.142    1.141
 (dLV/dLP)t      -1.08041 -1.07982 -1.07923 -1.07865 -1.07806 -1.07748 -1.09000 -1.08941
 (dLV/dLT)p        1.7033   1.6970   1.6908   1.6846   1.6785   1.6724   1.7984   1.7919
 Cp, KJ/(KG)(K)   66.3314  65.9042  65.4793  65.0567  64.6365  64.2186  72.2540  71.8169
 GAMMAs            1.3229   1.3240   1.3252   1.3263   1.3275   1.3286   1.3086   1.3096
 SON VEL,M/SEC     7919.1   7933.0   7947.0   7960.9   7974.8   7988.7   7746.1   7760.2

 TRANSPORT PROPERTIES (GASES ONLY)
   CONDUCTIVITY IN UNITS OF MILLIWATTS/(CM)(K)

 VISC,MILLIPOISE  0.80169  0.80167  0.80166  0.80165  0.80165  0.80165  0.81082  0.81074

  WITH EQUILIBRIUM REACTIONS

 Cp, KJ/(KG)(K)   66.3314  65.9042  65.4793  65.0567  64.6365  64.2186  72.2540  71.8169
 CONDUCTIVITY     86.4472  85.8837  85.3237  84.7671  84.2142  83.6648  95.2199  94.6290
 PRANDTL NUMBER    0.6151   0.6152   0.6152   0.6152   0.6153   0.6153   0.6153   0.6153

  WITH FROZEN REACTIONS

 Cp, KJ/(KG)(K)   20.6738  20.6736  20.6734  20.6732  20.6730  20.6728  20.6802  20.6800
 CONDUCTIVITY     23.3345  23.3430  23.3516  23.3604  23.3694  23.3785  23.4579  23.4643
 PRANDTL NUMBER    0.7103   0.7100   0.7097   0.7094   0.7092   0.7089   0.7148   0.7145

 MOLE FRACTIONS

 *e-              0.00002  0.00002  0.00002  0.00002  0.00002  0.00002  0.00001  0.00001
 *H               0.88803  0.88925  0.89045  0.89164  0.89281  0.89397  0.86658  0.86801
 *H+              0.00002  0.00002  0.00002  0.00002  0.00002  0.00002  0.00001  0.00001
 *H2              0.11193  0.11072  0.10951  0.10832  0.10715  0.10599  0.13339  0.13196

  * THERMODYNAMIC PROPERTIES FITTED TO 20000.K

 NOTE. WEIGHT FRACTION OF FUEL IN TOTAL FUELS AND OF OXIDANT IN TOTAL OXIDANTS









               THERMODYNAMIC EQUILIBRIUM PROPERTIES AT ASSIGNED

                           TEMPERATURE AND PRESSURE

 CASE =                

             REACTANT                    WT FRACTION      ENERGY      TEMP
                                          (SEE NOTE)     KJ/KG-MOL      K  
             H2                           1.0000000         0.000      0.000

 O/F=    0.00000  %FUEL=100.000000  R,EQ.RATIO= 0.000000  PHI,EQ.RATIO= 0.000000

 THERMODYNAMIC PROPERTIES

 P, BAR            74.000   74.000   74.000   74.000   74.000   74.000   74.000   74.000
 T, K             6320.00  6330.00  6340.00  6350.00  6360.00  6370.00  6380.00  6390.00
 RHO, KG/CU M    1.6047-1 1.6002-1 1.5957-1 1.5913-1 1.5869-1 1.5825-1 1.5782-1 1.5739-1
 H, KJ/KG        287253.6 287965.2 288672.5 289375.5 290074.1 290768.5 291458.6 292144.4
 U, KJ/KG        241139.4 241720.9 242298.4 242871.9 243441.4 244006.9 244568.4 245126.0
 G, KJ/KG       -559771.4-561112.2-562454.1-563797.1-565141.2-566486.5-567832.8-569180.2
 S, KJ/(KG)(K)   134.0229 134.1354 134.2471 134.3579 134.4678 134.5769 134.6852 134.7926

 M, (1/n)           1.140    1.138    1.137    1.135    1.134    1.133    1.131    1.130
 (dLV/dLP)t      -1.08882 -1.08822 -1.08763 -1.08704 -1.08645 -1.08587 -1.08528 -1.08469
 (dLV/dLT)p        1.7854   1.7790   1.7725   1.7661   1.7597   1.7534   1.7470   1.7407
 Cp, KJ/(KG)(K)   71.3809  70.9462  70.5129  70.0810  69.6506  69.2217  68.7945  68.3689
 GAMMAs            1.3107   1.3117   1.3128   1.3139   1.3150   1.3161   1.3172   1.3182
 SON VEL,M/SEC     7774.4   7788.5   7802.6   7816.7   7830.8   7844.8   7858.8   7872.9

 TRANSPORT PROPERTIES (GASES ONLY)
   CONDUCTIVITY IN UNITS OF MILLIWATTS/(CM)(K)

 VISC,MILLIPOISE  0.81067  0.81060  0.81053  0.81046  0.81041  0.81035  0.81030  0.81026

  WITH EQUILIBRIUM REACTIONS

 Cp, KJ/(KG)(K)   71.3809  70.9462  70.5129  70.0810  69.6506  69.2217  68.7945  68.3689
 CONDUCTIVITY     94.0404  93.4542  92.8706  92.2894  91.7110  91.1352  90.5622  89.9920
 PRANDTL NUMBER    0.6153   0.6154   0.6154   0.6154   0.6155   0.6155   0.6155   0.6156

  WITH FROZEN REACTIONS

 Cp, KJ/(KG)(K)   20.6798  20.6796  20.6794  20.6793  20.6791  20.6789  20.6787  20.6785
 CONDUCTIVITY     23.4708  23.4775  23.4843  23.4913  23.4984  23.5056  23.5130  23.5205
 PRANDTL NUMBER    0.7143   0.7140   0.7137   0.7134   0.7132   0.7129   0.7126   0.7124

 MOLE FRACTIONS

 *e-              0.00001  0.00001  0.00001  0.00001  0.00001  0.00002  0.00002  0.00002
 *H               0.86942  0.87082  0.87220  0.87356  0.87491  0.87625  0.87757  0.87888
 *H+              0.00001  0.00001  0.00001  0.00001  0.00001  0.00001  0.00002  0.00002
 *H2              0.13055  0.12915  0.12777  0.12641  0.12505  0.12372  0.12240  0.12109

  * THERMODYNAMIC PROPERTIES FITTED TO 20000.K

 NOTE. WEIGHT FRACTION OF FUEL IN TOTAL FUELS AND OF OXIDANT IN TOTAL OXIDANTS









               THERMODYNAMIC EQUILIBRIUM PROPERTIES AT ASSIGNED

                           TEMPERATURE AND PRESSURE

 CASE =                

             REACTANT                    WT FRACTION      ENERGY      TEMP
                                          (SEE NOTE)     KJ/KG-MOL      K  
             H2                           1.0000000         0.000      0.000

 O/F=    0.00000  %FUEL=100.000000  R,EQ.RATIO= 0.000000  PHI,EQ.RATIO= 0.000000

 THERMODYNAMIC PROPERTIES

 P, BAR            74.000   74.000   74.000   74.000   74.000   82.500   82.500   82.500
 T, K             6400.00  6410.00  6420.00  6430.00  6440.00  6300.00  6310.00  6320.00
 RHO, KG/CU M    1.5696-1 1.5653-1 1.5611-1 1.5570-1 1.5528-1 1.8174-1 1.8121-1 1.8068-1
 H, KJ/KG        292825.9 293503.3 294176.4 294845.4 295510.1 281756.7 282497.6 283234.2
 U, KJ/KG        245679.6 246229.3 246775.2 247317.1 247855.2 236361.5 236970.0 237574.6
 G, KJ/KG       -570528.6-571878.1-573228.7-574580.3-575933.0-552132.2-553456.4-554781.8
 S, KJ/(KG)(K)   134.8992 135.0049 135.1098 135.2139 135.3173 132.3633 132.4808 132.5975

 M, (1/n)           1.129    1.127    1.126    1.125    1.124    1.154    1.152    1.151
 (dLV/dLP)t      -1.08410 -1.08352 -1.08293 -1.08235 -1.08177 -1.09450 -1.09393 -1.09335
 (dLV/dLT)p        1.7344   1.7282   1.7219   1.7157   1.7096   1.8384   1.8320   1.8256
 Cp, KJ/(KG)(K)   67.9451  67.5230  67.1028  66.6845  66.2681  74.2967  73.8720  73.4479
 GAMMAs            1.3193   1.3204   1.3216   1.3227   1.3238   1.3042   1.3053   1.3063
 SON VEL,M/SEC     7886.8   7900.8   7914.8   7928.7   7942.6   7694.6   7708.8   7722.9

 TRANSPORT PROPERTIES (GASES ONLY)
   CONDUCTIVITY IN UNITS OF MILLIWATTS/(CM)(K)

 VISC,MILLIPOISE  0.81022  0.81018  0.81015  0.81013  0.81011  0.82055  0.82046  0.82037

  WITH EQUILIBRIUM REACTIONS

 Cp, KJ/(KG)(K)   67.9451  67.5230  67.1028  66.6845  66.2681  74.2967  73.8720  73.4479
 CONDUCTIVITY     89.4247  88.8604  88.2990  87.7408  87.1856  99.0301  98.4457  97.8630
 PRANDTL NUMBER    0.6156   0.6156   0.6157   0.6157   0.6157   0.6156   0.6157   0.6157

  WITH FROZEN REACTIONS

 Cp, KJ/(KG)(K)   20.6783  20.6781  20.6778  20.6776  20.6774  20.6854  20.6853  20.6851
 CONDUCTIVITY     23.5282  23.5361  23.5440  23.5522  23.5605  23.6764  23.6821  23.6880
 PRANDTL NUMBER    0.7121   0.7118   0.7115   0.7113   0.7110   0.7169   0.7166   0.7164

 MOLE FRACTIONS

 *e-              0.00002  0.00002  0.00002  0.00002  0.00002  0.00001  0.00001  0.00001
 *H               0.88017  0.88144  0.88271  0.88395  0.88519  0.85516  0.85667  0.85817
 *H+              0.00002  0.00002  0.00002  0.00002  0.00002  0.00001  0.00001  0.00001
 *H2              0.11980  0.11852  0.11726  0.11601  0.11477  0.14482  0.14330  0.14180

  * THERMODYNAMIC PROPERTIES FITTED TO 20000.K

 NOTE. WEIGHT FRACTION OF FUEL IN TOTAL FUELS AND OF OXIDANT IN TOTAL OXIDANTS









               THERMODYNAMIC EQUILIBRIUM PROPERTIES AT ASSIGNED

                           TEMPERATURE AND PRESSURE

 CASE =                

             REACTANT                    WT FRACTION      ENERGY      TEMP
                                          (SEE NOTE)     KJ/KG-MOL      K  
             H2                           1.0000000         0.000      0.000

 O/F=    0.00000  %FUEL=100.000000  R,EQ.RATIO= 0.000000  PHI,EQ.RATIO= 0.000000

 THERMODYNAMIC PROPERTIES

 P, BAR            82.500   82.500   82.500   82.500   82.500   82.500   82.500   82.500
 T, K             6330.00  6340.00  6350.00  6360.00  6370.00  6380.00  6390.00  6400.00
 RHO, KG/CU M    1.8016-1 1.7965-1 1.7914-1 1.7863-1 1.7813-1 1.7763-1 1.7713-1 1.7664-1
 H, KJ/KG        283966.5 284694.7 285418.6 286138.3 286853.8 287565.1 288272.2 288975.1
 U, KJ/KG        238175.2 238771.8 239364.6 239953.4 240538.3 241119.4 241696.5 242269.8
 G, KJ/KG       -556108.3-557436.0-558764.9-560094.9-561426.0-562758.2-564091.6-565426.0
 S, KJ/(KG)(K)   132.7132 132.8282 132.9423 133.0555 133.1679 133.2795 133.3903 133.5002

 M, (1/n)           1.149    1.148    1.146    1.145    1.144    1.142    1.141    1.139
 (dLV/dLP)t      -1.09278 -1.09220 -1.09163 -1.09105 -1.09047 -1.08990 -1.08932 -1.08874
 (dLV/dLT)p        1.8192   1.8128   1.8064   1.8001   1.7938   1.7875   1.7812   1.7749
 Cp, KJ/(KG)(K)   73.0244  72.6018  72.1799  71.7590  71.3391  70.9202  70.5024  70.0859
 GAMMAs            1.3073   1.3083   1.3093   1.3104   1.3114   1.3125   1.3135   1.3145
 SON VEL,M/SEC     7737.1   7751.2   7765.3   7779.4   7793.5   7807.5   7821.6   7835.6

 TRANSPORT PROPERTIES (GASES ONLY)
   CONDUCTIVITY IN UNITS OF MILLIWATTS/(CM)(K)

 VISC,MILLIPOISE  0.82029  0.82021  0.82014  0.82006  0.82000  0.81993  0.81987  0.81982

  WITH EQUILIBRIUM REACTIONS

 Cp, KJ/(KG)(K)   73.0244  72.6018  72.1799  71.7590  71.3391  70.9202  70.5024  70.0859
 CONDUCTIVITY     97.2820  96.7027  96.1253  95.5499  94.9765  94.4052  93.8361  93.2692
 PRANDTL NUMBER    0.6157   0.6158   0.6158   0.6159   0.6159   0.6160   0.6160   0.6160

  WITH FROZEN REACTIONS

 Cp, KJ/(KG)(K)   20.6849  20.6848  20.6846  20.6844  20.6842  20.6840  20.6838  20.6836
 CONDUCTIVITY     23.6940  23.7001  23.7063  23.7127  23.7192  23.7258  23.7326  23.7395
 PRANDTL NUMBER    0.7161   0.7159   0.7156   0.7153   0.7151   0.7148   0.7145   0.7143

 MOLE FRACTIONS

 *e-              0.00001  0.00001  0.00001  0.00001  0.00001  0.00001  0.00001  0.00002
 *H               0.85965  0.86112  0.86257  0.86401  0.86543  0.86683  0.86822  0.86960
 *H+              0.00001  0.00001  0.00001  0.00001  0.00001  0.00001  0.00001  0.00001
 *H2              0.14032  0.13885  0.13740  0.13596  0.13454  0.13314  0.13175  0.13037

  * THERMODYNAMIC PROPERTIES FITTED TO 20000.K

 NOTE. WEIGHT FRACTION OF FUEL IN TOTAL FUELS AND OF OXIDANT IN TOTAL OXIDANTS









               THERMODYNAMIC EQUILIBRIUM PROPERTIES AT ASSIGNED

                           TEMPERATURE AND PRESSURE

 CASE =                

             REACTANT                    WT FRACTION      ENERGY      TEMP
                                          (SEE NOTE)     KJ/KG-MOL      K  
             H2                           1.0000000         0.000      0.000

 O/F=    0.00000  %FUEL=100.000000  R,EQ.RATIO= 0.000000  PHI,EQ.RATIO= 0.000000

 THERMODYNAMIC PROPERTIES

 P, BAR            82.500   82.500   82.500   82.500   91.000   91.000   91.000   91.000
 T, K             6410.00  6420.00  6430.00  6440.00  6300.00  6310.00  6320.00  6330.00
 RHO, KG/CU M    1.7615-1 1.7567-1 1.7519-1 1.7471-1 2.0237-1 2.0177-1 2.0117-1 2.0058-1
 H, KJ/KG        289673.9 290368.5 291059.0 291745.4 277964.6 278722.5 279476.4 280226.2
 U, KJ/KG        242839.2 243404.7 243966.4 244524.4 232996.8 233621.2 234241.7 234858.4
 G, KJ/KG       -566761.6-568098.2-569435.9-570774.7-547701.5-549012.7-550325.1-551638.6
 S, KJ/(KG)(K)   133.6093 133.7176 133.8250 133.9317 131.0581 131.1783 131.2977 131.4162

 M, (1/n)           1.138    1.137    1.135    1.134    1.165    1.163    1.162    1.160
 (dLV/dLP)t      -1.08817 -1.08759 -1.08701 -1.08644 -1.09843 -1.09788 -1.09732 -1.09677
 (dLV/dLT)p        1.7687   1.7624   1.7563   1.7501   1.8732   1.8669   1.8606   1.8544
 Cp, KJ/(KG)(K)   69.6705  69.2565  68.8439  68.4327  76.0008  75.5906  75.1805  74.7706
 GAMMAs            1.3156   1.3167   1.3177   1.3188   1.3006   1.3016   1.3025   1.3035
 SON VEL,M/SEC     7849.6   7863.6   7877.5   7891.5   7647.5   7661.7   7675.9   7690.1

 TRANSPORT PROPERTIES (GASES ONLY)
   CONDUCTIVITY IN UNITS OF MILLIWATTS/(CM)(K)

 VISC,MILLIPOISE  0.81977  0.81972  0.81968  0.81964  0.82943  0.82934  0.82925  0.82917

  WITH EQUILIBRIUM REACTIONS

 Cp, KJ/(KG)(K)   69.6705  69.2565  68.8439  68.4327  76.0008  75.5906  75.1805  74.7706
 CONDUCTIVITY     92.7047  92.1426  91.5829  91.0257 102.3642 101.7904 101.2176 100.6457
 PRANDTL NUMBER    0.6161   0.6161   0.6162   0.6162   0.6158   0.6159   0.6159   0.6160

  WITH FROZEN REACTIONS

 Cp, KJ/(KG)(K)   20.6834  20.6832  20.6830  20.6828  20.6903  20.6902  20.6900  20.6899
 CONDUCTIVITY     23.7465  23.7537  23.7610  23.7685  23.8795  23.8847  23.8901  23.8956
 PRANDTL NUMBER    0.7140   0.7138   0.7135   0.7132   0.7187   0.7184   0.7182   0.7179

 MOLE FRACTIONS

 *e-              0.00002  0.00002  0.00002  0.00002  0.00001  0.00001  0.00001  0.00001
 *H               0.87096  0.87230  0.87363  0.87495  0.84428  0.84587  0.84745  0.84901
 *H+              0.00002  0.00002  0.00002  0.00002  0.00001  0.00001  0.00001  0.00001
 *H2              0.12901  0.12766  0.12633  0.12501  0.15570  0.15411  0.15253  0.15097

  * THERMODYNAMIC PROPERTIES FITTED TO 20000.K

 NOTE. WEIGHT FRACTION OF FUEL IN TOTAL FUELS AND OF OXIDANT IN TOTAL OXIDANTS









               THERMODYNAMIC EQUILIBRIUM PROPERTIES AT ASSIGNED

                           TEMPERATURE AND PRESSURE

 CASE =                

             REACTANT                    WT FRACTION      ENERGY      TEMP
                                          (SEE NOTE)     KJ/KG-MOL      K  
             H2                           1.0000000         0.000      0.000

 O/F=    0.00000  %FUEL=100.000000  R,EQ.RATIO= 0.000000  PHI,EQ.RATIO= 0.000000

 THERMODYNAMIC PROPERTIES

 P, BAR            91.000   91.000   91.000   91.000   91.000   91.000   91.000   91.000
 T, K             6340.00  6350.00  6360.00  6370.00  6380.00  6390.00  6400.00  6410.00
 RHO, KG/CU M    2.0000-1 1.9942-1 1.9884-1 1.9827-1 1.9770-1 1.9714-1 1.9658-1 1.9603-1
 H, KJ/KG        280971.8 281713.4 282450.8 283184.2 283913.5 284638.7 285359.9 286077.0
 U, KJ/KG        235471.3 236080.4 236685.6 237287.1 237884.7 238478.5 239068.6 239654.8
 G, KJ/KG       -552953.4-554269.3-555586.4-556904.6-558224.0-559544.6-560866.2-562189.0
 S, KJ/(KG)(K)   131.5339 131.6508 131.7669 131.8821 131.9965 132.1101 132.2228 132.3348

 M, (1/n)           1.159    1.157    1.155    1.154    1.152    1.151    1.150    1.148
 (dLV/dLP)t      -1.09621 -1.09565 -1.09509 -1.09453 -1.09397 -1.09340 -1.09284 -1.09228
 (dLV/dLT)p        1.8481   1.8418   1.8356   1.8293   1.8231   1.8169   1.8107   1.8045
 Cp, KJ/(KG)(K)   74.3609  73.9514  73.5424  73.1338  72.7258  72.3184  71.9116  71.5056
 GAMMAs            1.3045   1.3055   1.3065   1.3075   1.3085   1.3095   1.3105   1.3115
 SON VEL,M/SEC     7704.2   7718.4   7732.5   7746.6   7760.6   7774.7   7788.7   7802.8

 TRANSPORT PROPERTIES (GASES ONLY)
   CONDUCTIVITY IN UNITS OF MILLIWATTS/(CM)(K)

 VISC,MILLIPOISE  0.82909  0.82901  0.82893  0.82886  0.82879  0.82872  0.82865  0.82859

  WITH EQUILIBRIUM REACTIONS

 Cp, KJ/(KG)(K)   74.3609  73.9514  73.5424  73.1338  72.7258  72.3184  71.9116  71.5056
 CONDUCTIVITY    100.0750  99.5054  98.9372  98.3703  97.8050  97.2411  96.6790  96.1185
 PRANDTL NUMBER    0.6161   0.6161   0.6162   0.6162   0.6163   0.6163   0.6164   0.6164

  WITH FROZEN REACTIONS

 Cp, KJ/(KG)(K)   20.6897  20.6896  20.6894  20.6892  20.6890  20.6888  20.6886  20.6884
 CONDUCTIVITY     23.9011  23.9068  23.9126  23.9186  23.9246  23.9308  23.9371  23.9435
 PRANDTL NUMBER    0.7177   0.7174   0.7172   0.7169   0.7167   0.7164   0.7162   0.7159

 MOLE FRACTIONS

 *e-              0.00001  0.00001  0.00001  0.00001  0.00001  0.00001  0.00001  0.00001
 *H               0.85055  0.85208  0.85359  0.85509  0.85657  0.85804  0.85949  0.86093
 *H+              0.00001  0.00001  0.00001  0.00001  0.00001  0.00001  0.00001  0.00001
 *H2              0.14942  0.14789  0.14638  0.14488  0.14340  0.14193  0.14048  0.13904

  * THERMODYNAMIC PROPERTIES FITTED TO 20000.K

 NOTE. WEIGHT FRACTION OF FUEL IN TOTAL FUELS AND OF OXIDANT IN TOTAL OXIDANTS









               THERMODYNAMIC EQUILIBRIUM PROPERTIES AT ASSIGNED

                           TEMPERATURE AND PRESSURE

 CASE =                

             REACTANT                    WT FRACTION      ENERGY      TEMP
                                          (SEE NOTE)     KJ/KG-MOL      K  
             H2                           1.0000000         0.000      0.000

 O/F=    0.00000  %FUEL=100.000000  R,EQ.RATIO= 0.000000  PHI,EQ.RATIO= 0.000000

 THERMODYNAMIC PROPERTIES

 P, BAR            91.000   91.000   91.000   100.00   100.00   100.00   100.00   100.00
 T, K             6420.00  6430.00  6440.00  6300.00  6310.00  6320.00  6330.00  6340.00
 RHO, KG/CU M    1.9548-1 1.9493-1 1.9439-1 2.2449-1 2.2382-1 2.2315-1 2.2248-1 2.2182-1
 H, KJ/KG        286790.0 287499.0 288203.9 274210.5 274983.5 275752.6 276517.7 277278.9
 U, KJ/KG        240237.3 240816.0 241391.0 229665.8 230304.2 230939.0 231570.0 232197.3
 G, KJ/KG       -563512.9-564837.9-566164.1-543480.4-544779.0-546078.7-547379.7-548681.9
 S, KJ/(KG)(K)   132.4459 132.5563 132.6658 129.7922 129.9148 130.0366 130.1576 130.2777

 M, (1/n)           1.147    1.145    1.144    1.176    1.174    1.173    1.171    1.169
 (dLV/dLP)t      -1.09171 -1.09115 -1.09059 -1.10205 -1.10152 -1.10099 -1.10046 -1.09992
 (dLV/dLT)p        1.7983   1.7922   1.7861   1.9053   1.8992   1.8931   1.8870   1.8808
 Cp, KJ/(KG)(K)   71.1005  70.6962  70.2928  77.4984  77.1051  76.7113  76.3172  75.9227
 GAMMAs            1.3125   1.3135   1.3146   1.2973   1.2982   1.2992   1.3001   1.3010
 SON VEL,M/SEC     7816.8   7830.7   7844.7   7601.8   7616.0   7630.2   7644.4   7658.5

 TRANSPORT PROPERTIES (GASES ONLY)
   CONDUCTIVITY IN UNITS OF MILLIWATTS/(CM)(K)

 VISC,MILLIPOISE  0.82853  0.82848  0.82843  0.83803  0.83795  0.83787  0.83778  0.83771

  WITH EQUILIBRIUM REACTIONS

 Cp, KJ/(KG)(K)   71.1005  70.6962  70.2928  77.4984  77.1051  76.7113  76.3172  75.9227
 CONDUCTIVITY     95.5598  95.0031  94.4482 105.4514 104.8919 104.3327 103.7737 103.2153
 PRANDTL NUMBER    0.6165   0.6165   0.6166   0.6159   0.6160   0.6160   0.6161   0.6162

  WITH FROZEN REACTIONS

 Cp, KJ/(KG)(K)   20.6882  20.6880  20.6878  20.6952  20.6951  20.6949  20.6948  20.6947
 CONDUCTIVITY     23.9500  23.9567  23.9635  24.0795  24.0844  24.0894  24.0945  24.0996
 PRANDTL NUMBER    0.7157   0.7154   0.7152   0.7202   0.7200   0.7198   0.7196   0.7193

 MOLE FRACTIONS

 *e-              0.00002  0.00002  0.00002  0.00001  0.00001  0.00001  0.00001  0.00001
 *H               0.86235  0.86375  0.86515  0.83330  0.83497  0.83662  0.83825  0.83987
 *H+              0.00001  0.00001  0.00002  0.00001  0.00001  0.00001  0.00001  0.00001
 *H2              0.13762  0.13621  0.13482  0.16668  0.16501  0.16336  0.16172  0.16010

  * THERMODYNAMIC PROPERTIES FITTED TO 20000.K

 NOTE. WEIGHT FRACTION OF FUEL IN TOTAL FUELS AND OF OXIDANT IN TOTAL OXIDANTS









               THERMODYNAMIC EQUILIBRIUM PROPERTIES AT ASSIGNED

                           TEMPERATURE AND PRESSURE

 CASE =                

             REACTANT                    WT FRACTION      ENERGY      TEMP
                                          (SEE NOTE)     KJ/KG-MOL      K  
             H2                           1.0000000         0.000      0.000

 O/F=    0.00000  %FUEL=100.000000  R,EQ.RATIO= 0.000000  PHI,EQ.RATIO= 0.000000

 THERMODYNAMIC PROPERTIES

 P, BAR            100.00   100.00   100.00   100.00   100.00   100.00   100.00   100.00
 T, K             6350.00  6360.00  6370.00  6380.00  6390.00  6400.00  6410.00  6420.00
 RHO, KG/CU M    2.2116-1 2.2051-1 2.1987-1 2.1923-1 2.1859-1 2.1796-1 2.1734-1 2.1672-1
 H, KJ/KG        278036.2 278789.5 279538.8 280284.2 281025.7 281763.2 282496.8 283226.4
 U, KJ/KG        232821.0 233440.9 234057.2 234669.7 235278.6 235883.8 236485.3 237083.1
 G, KJ/KG       -549985.2-551289.8-552595.5-553902.5-555210.5-556519.8-557830.2-559141.7
 S, KJ/(KG)(K)   130.3971 130.5156 130.6333 130.7503 130.8664 130.9817 131.0963 131.2100

 M, (1/n)           1.168    1.166    1.165    1.163    1.161    1.160    1.158    1.157
 (dLV/dLP)t      -1.09939 -1.09885 -1.09831 -1.09777 -1.09722 -1.09668 -1.09613 -1.09558
 (dLV/dLT)p        1.8747   1.8686   1.8625   1.8564   1.8503   1.8442   1.8381   1.8320
 Cp, KJ/(KG)(K)   75.5281  75.1333  74.7386  74.3438  73.9492  73.5548  73.1606  72.7668
 GAMMAs            1.3020   1.3030   1.3039   1.3049   1.3058   1.3068   1.3078   1.3088
 SON VEL,M/SEC     7672.7   7686.8   7700.9   7715.0   7729.1   7743.1   7757.2   7771.2

 TRANSPORT PROPERTIES (GASES ONLY)
   CONDUCTIVITY IN UNITS OF MILLIWATTS/(CM)(K)

 VISC,MILLIPOISE  0.83763  0.83755  0.83748  0.83741  0.83734  0.83727  0.83721  0.83715

  WITH EQUILIBRIUM REACTIONS

 Cp, KJ/(KG)(K)   75.5281  75.1333  74.7386  74.3438  73.9492  73.5548  73.1606  72.7668
 CONDUCTIVITY    102.6573 102.1000 101.5435 100.9878 100.4330  99.8793  99.3267  98.7752
 PRANDTL NUMBER    0.6163   0.6163   0.6164   0.6165   0.6165   0.6166   0.6167   0.6167

  WITH FROZEN REACTIONS

 Cp, KJ/(KG)(K)   20.6945  20.6944  20.6942  20.6940  20.6938  20.6936  20.6934  20.6932
 CONDUCTIVITY     24.1049  24.1103  24.1158  24.1214  24.1271  24.1329  24.1388  24.1448
 PRANDTL NUMBER    0.7191   0.7189   0.7187   0.7184   0.7182   0.7180   0.7177   0.7175

 MOLE FRACTIONS

 *e-              0.00001  0.00001  0.00001  0.00001  0.00001  0.00001  0.00001  0.00001
 *H               0.84148  0.84306  0.84463  0.84619  0.84773  0.84925  0.85076  0.85226
 *H+              0.00001  0.00001  0.00001  0.00001  0.00001  0.00001  0.00001  0.00001
 *H2              0.15850  0.15691  0.15534  0.15378  0.15224  0.15072  0.14921  0.14771

  * THERMODYNAMIC PROPERTIES FITTED TO 20000.K

 NOTE. WEIGHT FRACTION OF FUEL IN TOTAL FUELS AND OF OXIDANT IN TOTAL OXIDANTS









               THERMODYNAMIC EQUILIBRIUM PROPERTIES AT ASSIGNED

                           TEMPERATURE AND PRESSURE

 CASE =                

             REACTANT                    WT FRACTION      ENERGY      TEMP
                                          (SEE NOTE)     KJ/KG-MOL      K  
             H2                           1.0000000         0.000      0.000

 O/F=    0.00000  %FUEL=100.000000  R,EQ.RATIO= 0.000000  PHI,EQ.RATIO= 0.000000

 THERMODYNAMIC PROPERTIES

 P, BAR            100.00   100.00   110.00   110.00   110.00   110.00   110.00   110.00
 T, K             6430.00  6440.00  6300.00  6310.00  6320.00  6330.00  6340.00  6350.00
 RHO, KG/CU M    2.1610-1 2.1549-1 2.4940-1 2.4864-1 2.4788-1 2.4713-1 2.4638-1 2.4564-1
 H, KJ/KG        283952.1 284673.9 270320.1 271106.8 271889.7 272668.9 273444.3 274216.0
 U, KJ/KG        237677.3 238267.8 226214.0 226865.2 227512.9 228157.1 228797.8 229434.9
 G, KJ/KG       -560454.4-561768.2-539255.7-540541.3-541828.3-543116.4-544405.8-545696.4
 S, KJ/(KG)(K)   131.3229 131.4351 128.5041 128.6289 128.7528 128.8760 128.9984 129.1201

 M, (1/n)           1.155    1.154    1.188    1.186    1.184    1.182    1.181    1.179
 (dLV/dLP)t      -1.09504 -1.09449 -1.10553 -1.10503 -1.10452 -1.10402 -1.10351 -1.10300
 (dLV/dLT)p        1.8259   1.8199   1.9361   1.9302   1.9243   1.9184   1.9124   1.9065
 Cp, KJ/(KG)(K)   72.3734  71.9805  78.8560  78.4823  78.1076  77.7321  77.3557  76.9787
 GAMMAs            1.3098   1.3107   1.2941   1.2950   1.2959   1.2968   1.2978   1.2987
 SON VEL,M/SEC     7785.2   7799.2   7555.1   7569.3   7583.5   7597.7   7611.9   7626.0

 TRANSPORT PROPERTIES (GASES ONLY)
   CONDUCTIVITY IN UNITS OF MILLIWATTS/(CM)(K)

 VISC,MILLIPOISE  0.83709  0.83703  0.84674  0.84667  0.84660  0.84653  0.84646  0.84639

  WITH EQUILIBRIUM REACTIONS

 Cp, KJ/(KG)(K)   72.3734  71.9805  78.8560  78.4823  78.1076  77.7321  77.3557  76.9787
 CONDUCTIVITY     98.2251  97.6763 108.4265 107.8854 107.3438 106.8020 106.2599 105.7177
 PRANDTL NUMBER    0.6168   0.6168   0.6158   0.6159   0.6160   0.6161   0.6162   0.6163

  WITH FROZEN REACTIONS

 Cp, KJ/(KG)(K)   20.6930  20.6928  20.7002  20.7001  20.7000  20.6999  20.6998  20.6997
 CONDUCTIVITY     24.1509  24.1572  24.2855  24.2902  24.2949  24.2997  24.3046  24.3096
 PRANDTL NUMBER    0.7172   0.7170   0.7217   0.7215   0.7213   0.7211   0.7209   0.7207

 MOLE FRACTIONS

 *e-              0.00001  0.00001  0.00001  0.00001  0.00001  0.00001  0.00001  0.00001
 *H               0.85374  0.85520  0.82170  0.82344  0.82517  0.82688  0.82857  0.83025
 *H+              0.00001  0.00001  0.00001  0.00001  0.00001  0.00001  0.00001  0.00001
 *H2              0.14623  0.14477  0.17828  0.17653  0.17481  0.17310  0.17140  0.16973

  * THERMODYNAMIC PROPERTIES FITTED TO 20000.K

 NOTE. WEIGHT FRACTION OF FUEL IN TOTAL FUELS AND OF OXIDANT IN TOTAL OXIDANTS









               THERMODYNAMIC EQUILIBRIUM PROPERTIES AT ASSIGNED

                           TEMPERATURE AND PRESSURE

 CASE =                

             REACTANT                    WT FRACTION      ENERGY      TEMP
                                          (SEE NOTE)     KJ/KG-MOL      K  
             H2                           1.0000000         0.000      0.000

 O/F=    0.00000  %FUEL=100.000000  R,EQ.RATIO= 0.000000  PHI,EQ.RATIO= 0.000000

 THERMODYNAMIC PROPERTIES

 P, BAR            110.00   110.00   110.00   110.00   110.00   110.00   110.00   110.00
 T, K             6360.00  6370.00  6380.00  6390.00  6400.00  6410.00  6420.00  6430.00
 RHO, KG/CU M    2.4490-1 2.4418-1 2.4345-1 2.4273-1 2.4202-1 2.4131-1 2.4061-1 2.3992-1
 H, KJ/KG        274983.9 275748.0 276508.4 277264.9 278017.7 278766.6 279511.8 280253.2
 U, KJ/KG        230068.5 230698.5 231324.9 231947.8 232567.2 233183.0 233795.2 234403.9
 G, KJ/KG       -546988.2-548281.2-549575.4-550870.8-552167.4-553465.1-554764.0-556064.1
 S, KJ/(KG)(K)   129.2409 129.3609 129.4802 129.5987 129.7164 129.8333 129.9495 130.0649

 M, (1/n)           1.177    1.176    1.174    1.172    1.171    1.169    1.168    1.166
 (dLV/dLP)t      -1.10249 -1.10197 -1.10145 -1.10093 -1.10041 -1.09989 -1.09936 -1.09884
 (dLV/dLT)p        1.9006   1.8946   1.8887   1.8827   1.8768   1.8708   1.8649   1.8590
 Cp, KJ/(KG)(K)   76.6011  76.2229  75.8443  75.4653  75.0861  74.7066  74.3270  73.9473
 GAMMAs            1.2996   1.3005   1.3014   1.3024   1.3033   1.3043   1.3052   1.3061
 SON VEL,M/SEC     7640.1   7654.3   7668.4   7682.4   7696.5   7710.6   7724.6   7738.6

 TRANSPORT PROPERTIES (GASES ONLY)
   CONDUCTIVITY IN UNITS OF MILLIWATTS/(CM)(K)

 VISC,MILLIPOISE  0.84632  0.84625  0.84619  0.84612  0.84606  0.84600  0.84594  0.84588

  WITH EQUILIBRIUM REACTIONS

 Cp, KJ/(KG)(K)   76.6011  76.2229  75.8443  75.4653  75.0861  74.7066  74.3270  73.9473
 CONDUCTIVITY    105.1755 104.6334 104.0914 103.5498 103.0085 102.4677 101.9275 101.3879
 PRANDTL NUMBER    0.6164   0.6165   0.6166   0.6166   0.6167   0.6168   0.6169   0.6169

  WITH FROZEN REACTIONS

 Cp, KJ/(KG)(K)   20.6995  20.6994  20.6992  20.6990  20.6988  20.6987  20.6985  20.6982
 CONDUCTIVITY     24.3147  24.3198  24.3250  24.3303  24.3358  24.3413  24.3469  24.3525
 PRANDTL NUMBER    0.7205   0.7203   0.7201   0.7198   0.7196   0.7194   0.7192   0.7189

 MOLE FRACTIONS

 *e-              0.00001  0.00001  0.00001  0.00001  0.00001  0.00001  0.00001  0.00001
 *H               0.83191  0.83355  0.83518  0.83680  0.83840  0.83998  0.84155  0.84310
 *H+              0.00001  0.00001  0.00001  0.00001  0.00001  0.00001  0.00001  0.00001
 *H2              0.16807  0.16642  0.16479  0.16318  0.16158  0.15999  0.15843  0.15687

  * THERMODYNAMIC PROPERTIES FITTED TO 20000.K

 NOTE. WEIGHT FRACTION OF FUEL IN TOTAL FUELS AND OF OXIDANT IN TOTAL OXIDANTS









               THERMODYNAMIC EQUILIBRIUM PROPERTIES AT ASSIGNED

                           TEMPERATURE AND PRESSURE

 CASE =                

             REACTANT                    WT FRACTION      ENERGY      TEMP
                                          (SEE NOTE)     KJ/KG-MOL      K  
             H2                           1.0000000         0.000      0.000

 O/F=    0.00000  %FUEL=100.000000  R,EQ.RATIO= 0.000000  PHI,EQ.RATIO= 0.000000

 THERMODYNAMIC PROPERTIES

 P, BAR            110.00   120.00   120.00   120.00   120.00   120.00   120.00   120.00
 T, K             6440.00  6300.00  6310.00  6320.00  6330.00  6340.00  6350.00  6360.00
 RHO, KG/CU M    2.3923-1 2.7462-1 2.7376-1 2.7292-1 2.7208-1 2.7125-1 2.7042-1 2.6960-1
 H, KJ/KG        280990.8 266693.0 267490.8 268284.9 269075.5 269862.6 270646.0 271425.9
 U, KJ/KG        235009.1 222995.8 223657.5 224315.8 224970.7 225622.3 226270.5 226915.3
 G, KJ/KG       -557365.3-535435.7-536709.5-537984.6-539261.0-540538.6-541817.5-543097.6
 S, KJ/(KG)(K)   130.1795 127.3220 127.4485 127.5743 127.6993 127.8235 127.9470 128.0697

 M, (1/n)           1.164    1.199    1.197    1.195    1.193    1.192    1.190    1.188
 (dLV/dLP)t      -1.09831 -1.10851 -1.10804 -1.10757 -1.10709 -1.10661 -1.10613 -1.10564
 (dLV/dLT)p        1.8530   1.9626   1.9569   1.9512   1.9455   1.9398   1.9340   1.9283
 Cp, KJ/(KG)(K)   73.5676  79.9476  79.5938  79.2386  78.8821  78.5244  78.1656  77.8057
 GAMMAs            1.3071   1.2914   1.2923   1.2932   1.2940   1.2949   1.2958   1.2967
 SON VEL,M/SEC     7752.6   7512.1   7526.3   7540.5   7554.7   7568.9   7583.0   7597.1

 TRANSPORT PROPERTIES (GASES ONLY)
   CONDUCTIVITY IN UNITS OF MILLIWATTS/(CM)(K)

 VISC,MILLIPOISE  0.84582  0.85466  0.85461  0.85455  0.85450  0.85444  0.85439  0.85433

  WITH EQUILIBRIUM REACTIONS

 Cp, KJ/(KG)(K)   73.5676  79.9476  79.5938  79.2386  78.8821  78.5244  78.1656  77.8057
 CONDUCTIVITY    100.8491 110.9943 110.4734 109.9514 109.4286 108.9048 108.3804 107.8553
 PRANDTL NUMBER    0.6170   0.6156   0.6157   0.6158   0.6160   0.6161   0.6162   0.6163

  WITH FROZEN REACTIONS

 Cp, KJ/(KG)(K)   20.6980  20.7049  20.7049  20.7048  20.7047  20.7046  20.7045  20.7043
 CONDUCTIVITY     24.3583  24.4763  24.4808  24.4855  24.4902  24.4949  24.4997  24.5046
 PRANDTL NUMBER    0.7187   0.7230   0.7228   0.7226   0.7224   0.7222   0.7220   0.7218

 MOLE FRACTIONS

 *e-              0.00001  0.00001  0.00001  0.00001  0.00001  0.00001  0.00001  0.00001
 *H               0.84463  0.81068  0.81249  0.81428  0.81605  0.81781  0.81956  0.82128
 *H+              0.00001  0.00001  0.00001  0.00001  0.00001  0.00001  0.00001  0.00001
 *H2              0.15533  0.18930  0.18749  0.18570  0.18392  0.18216  0.18042  0.17869

  * THERMODYNAMIC PROPERTIES FITTED TO 20000.K

 NOTE. WEIGHT FRACTION OF FUEL IN TOTAL FUELS AND OF OXIDANT IN TOTAL OXIDANTS









               THERMODYNAMIC EQUILIBRIUM PROPERTIES AT ASSIGNED

                           TEMPERATURE AND PRESSURE

 CASE =                

             REACTANT                    WT FRACTION      ENERGY      TEMP
                                          (SEE NOTE)     KJ/KG-MOL      K  
             H2                           1.0000000         0.000      0.000

 O/F=    0.00000  %FUEL=100.000000  R,EQ.RATIO= 0.000000  PHI,EQ.RATIO= 0.000000

 THERMODYNAMIC PROPERTIES

 P, BAR            120.00   120.00   120.00   120.00   120.00   120.00   120.00   120.00
 T, K             6370.00  6380.00  6390.00  6400.00  6410.00  6420.00  6430.00  6440.00
 RHO, KG/CU M    2.6878-1 2.6798-1 2.6717-1 2.6638-1 2.6559-1 2.6480-1 2.6403-1 2.6325-1
 H, KJ/KG        272202.1 272974.8 273743.8 274509.2 275270.9 276029.0 276783.5 277534.3
 U, KJ/KG        227556.7 228194.7 228829.3 229460.5 230088.3 230712.6 231333.5 231951.0
 G, KJ/KG       -544378.9-545661.4-546945.1-548230.1-549516.2-550803.5-552092.0-553381.6
 S, KJ/(KG)(K)   128.1917 128.3129 128.4333 128.5530 128.6719 128.7901 128.9075 129.0242

 M, (1/n)           1.186    1.185    1.183    1.181    1.180    1.178    1.176    1.175
 (dLV/dLP)t      -1.10516 -1.10466 -1.10417 -1.10367 -1.10317 -1.10267 -1.10217 -1.10166
 (dLV/dLT)p        1.9225   1.9168   1.9110   1.9052   1.8995   1.8937   1.8879   1.8821
 Cp, KJ/(KG)(K)   77.4449  77.0832  76.7207  76.3575  75.9937  75.6293  75.2644  74.8991
 GAMMAs            1.2976   1.2985   1.2994   1.3003   1.3012   1.3021   1.3030   1.3039
 SON VEL,M/SEC     7611.3   7625.4   7639.5   7653.5   7667.6   7681.6   7695.6   7709.6

 TRANSPORT PROPERTIES (GASES ONLY)
   CONDUCTIVITY IN UNITS OF MILLIWATTS/(CM)(K)

 VISC,MILLIPOISE  0.85428  0.85422  0.85417  0.85411  0.85406  0.85401  0.85396  0.85391

  WITH EQUILIBRIUM REACTIONS

 Cp, KJ/(KG)(K)   77.4449  77.0832  76.7207  76.3575  75.9937  75.6293  75.2644  74.8991
 CONDUCTIVITY    107.3298 106.8038 106.2775 105.7510 105.2245 104.6979 104.1714 103.6450
 PRANDTL NUMBER    0.6164   0.6165   0.6166   0.6167   0.6168   0.6169   0.6170   0.6171

  WITH FROZEN REACTIONS

 Cp, KJ/(KG)(K)   20.7042  20.7041  20.7039  20.7037  20.7035  20.7034  20.7032  20.7029
 CONDUCTIVITY     24.5095  24.5145  24.5196  24.5248  24.5300  24.5353  24.5407  24.5462
 PRANDTL NUMBER    0.7216   0.7214   0.7212   0.7210   0.7208   0.7206   0.7204   0.7202

 MOLE FRACTIONS

 *e-              0.00001  0.00001  0.00001  0.00001  0.00001  0.00001  0.00001  0.00001
 *H               0.82300  0.82469  0.82637  0.82804  0.82969  0.83132  0.83294  0.83454
 *H+              0.00001  0.00001  0.00001  0.00001  0.00001  0.00001  0.00001  0.00001
 *H2              0.17698  0.17528  0.17360  0.17194  0.17029  0.16865  0.16703  0.16543

  * THERMODYNAMIC PROPERTIES FITTED TO 20000.K

 NOTE. WEIGHT FRACTION OF FUEL IN TOTAL FUELS AND OF OXIDANT IN TOTAL OXIDANTS









               THERMODYNAMIC EQUILIBRIUM PROPERTIES AT ASSIGNED

                           TEMPERATURE AND PRESSURE

 CASE =                

             REACTANT                    WT FRACTION      ENERGY      TEMP
                                          (SEE NOTE)     KJ/KG-MOL      K  
             H2                           1.0000000         0.000      0.000

 O/F=    0.00000  %FUEL=100.000000  R,EQ.RATIO= 0.000000  PHI,EQ.RATIO= 0.000000

 THERMODYNAMIC PROPERTIES

 P, BAR            132.00   132.00   132.00   132.00   132.00   132.00   132.00   132.00
 T, K             6300.00  6310.00  6320.00  6330.00  6340.00  6350.00  6360.00  6370.00
 RHO, KG/CU M    3.0526-1 3.0430-1 3.0335-1 3.0240-1 3.0146-1 3.0053-1 2.9961-1 2.9869-1
 H, KJ/KG        262648.5 263456.6 264261.4 265062.8 265860.9 266655.6 267446.9 268234.9
 U, KJ/KG        219407.2 220078.8 220747.3 221412.5 222074.6 222733.5 223389.2 224041.7
 G, KJ/KG       -531292.6-532553.4-533815.6-535079.0-536343.7-537609.6-538876.8-540145.2
 S, KJ/(KG)(K)   126.0224 126.1506 126.2780 126.4047 126.5307 126.6559 126.7805 126.9043

 M, (1/n)           1.211    1.209    1.208    1.206    1.204    1.202    1.200    1.198
 (dLV/dLP)t      -1.11154 -1.11111 -1.11067 -1.11023 -1.10979 -1.10934 -1.10889 -1.10844
 (dLV/dLT)p        1.9895   1.9841   1.9787   1.9732   1.9678   1.9623   1.9568   1.9513
 Cp, KJ/(KG)(K)   80.9714  80.6413  80.3094  79.9758  79.6405  79.3037  78.9654  78.6257
 GAMMAs            1.2886   1.2894   1.2903   1.2911   1.2920   1.2928   1.2937   1.2946
 SON VEL,M/SEC     7464.7   7478.9   7493.0   7507.2   7521.4   7535.5   7549.7   7563.8

 TRANSPORT PROPERTIES (GASES ONLY)
   CONDUCTIVITY IN UNITS OF MILLIWATTS/(CM)(K)

 VISC,MILLIPOISE  0.86327  0.86324  0.86321  0.86317  0.86314  0.86311  0.86307  0.86304

  WITH EQUILIBRIUM REACTIONS

 Cp, KJ/(KG)(K)   80.9714  80.6413  80.3094  79.9758  79.6405  79.3037  78.9654  78.6257
 CONDUCTIVITY    113.6233 113.1280 112.6310 112.1324 111.6323 111.1308 110.6281 110.1243
 PRANDTL NUMBER    0.6152   0.6153   0.6155   0.6156   0.6158   0.6159   0.6161   0.6162

  WITH FROZEN REACTIONS

 Cp, KJ/(KG)(K)   20.7102  20.7101  20.7101  20.7100  20.7099  20.7098  20.7097  20.7096
 CONDUCTIVITY     24.6873  24.6919  24.6966  24.7013  24.7060  24.7107  24.7155  24.7204
 PRANDTL NUMBER    0.7242   0.7240   0.7239   0.7237   0.7235   0.7234   0.7232   0.7230

 MOLE FRACTIONS

 *e-              0.00001  0.00001  0.00001  0.00001  0.00001  0.00001  0.00001  0.00001
 *H               0.79814  0.80002  0.80188  0.80373  0.80556  0.80737  0.80917  0.81095
 *H+              0.00001  0.00001  0.00001  0.00001  0.00001  0.00001  0.00001  0.00001
 *H2              0.20184  0.19996  0.19810  0.19625  0.19442  0.19260  0.19080  0.18902

  * THERMODYNAMIC PROPERTIES FITTED TO 20000.K

 NOTE. WEIGHT FRACTION OF FUEL IN TOTAL FUELS AND OF OXIDANT IN TOTAL OXIDANTS









               THERMODYNAMIC EQUILIBRIUM PROPERTIES AT ASSIGNED

                           TEMPERATURE AND PRESSURE

 CASE =                

             REACTANT                    WT FRACTION      ENERGY      TEMP
                                          (SEE NOTE)     KJ/KG-MOL      K  
             H2                           1.0000000         0.000      0.000

 O/F=    0.00000  %FUEL=100.000000  R,EQ.RATIO= 0.000000  PHI,EQ.RATIO= 0.000000

 THERMODYNAMIC PROPERTIES

 P, BAR            132.00   132.00   132.00   132.00   132.00   132.00   132.00   148.00
 T, K             6380.00  6390.00  6400.00  6410.00  6420.00  6430.00  6440.00  6300.00
 RHO, KG/CU M    2.9778-1 2.9687-1 2.9597-1 2.9508-1 2.9420-1 2.9332-1 2.9245-1 3.4673-1
 H, KJ/KG        269019.5 269800.6 270578.3 271352.6 272123.4 272890.7 273654.6 257711.8
 U, KJ/KG        224691.0 225337.0 225979.8 226619.4 227255.7 227888.7 228518.4 215027.0
 G, KJ/KG       -541414.8-542685.7-543957.8-545231.2-546505.7-547781.4-549058.3-526377.0
 S, KJ/(KG)(K)   127.0273 127.1497 127.2713 127.3922 127.5123 127.6317 127.7505 124.4586

 M, (1/n)           1.197    1.195    1.193    1.191    1.190    1.188    1.186    1.227
 (dLV/dLP)t      -1.10798 -1.10752 -1.10705 -1.10658 -1.10611 -1.10563 -1.10516 -1.11483
 (dLV/dLT)p        1.9458   1.9403   1.9347   1.9291   1.9236   1.9180   1.9124   2.0186
 Cp, KJ/(KG)(K)   78.2847  77.9424  77.5990  77.2545  76.9090  76.5626  76.2153  81.9520
 GAMMAs            1.2954   1.2963   1.2972   1.2980   1.2989   1.2998   1.3007   1.2854
 SON VEL,M/SEC     7577.9   7591.9   7606.0   7620.1   7634.1   7648.1   7662.1   7407.3

 TRANSPORT PROPERTIES (GASES ONLY)
   CONDUCTIVITY IN UNITS OF MILLIWATTS/(CM)(K)

 VISC,MILLIPOISE  0.86300  0.86296  0.86292  0.86289  0.86285  0.86281  0.86277  0.87343

  WITH EQUILIBRIUM REACTIONS

 Cp, KJ/(KG)(K)   78.2847  77.9424  77.5990  77.2545  76.9090  76.5626  76.2153  81.9520
 CONDUCTIVITY    109.6194 109.1136 108.6069 108.0995 107.5914 107.0829 106.5738 116.4970
 PRANDTL NUMBER    0.6163   0.6164   0.6166   0.6167   0.6168   0.6169   0.6170   0.6144

  WITH FROZEN REACTIONS

 Cp, KJ/(KG)(K)   20.7095  20.7093  20.7092  20.7090  20.7088  20.7087  20.7085  20.7166
 CONDUCTIVITY     24.7253  24.7302  24.7352  24.7403  24.7454  24.7506  24.7559  24.9423
 PRANDTL NUMBER    0.7228   0.7227   0.7225   0.7223   0.7221   0.7219   0.7217   0.7255

 MOLE FRACTIONS

 *e-              0.00001  0.00001  0.00001  0.00001  0.00001  0.00001  0.00001  0.00001
 *H               0.81272  0.81447  0.81621  0.81793  0.81963  0.82132  0.82300  0.78247
 *H+              0.00001  0.00001  0.00001  0.00001  0.00001  0.00001  0.00001  0.00001
 *H2              0.18725  0.18550  0.18377  0.18204  0.18034  0.17865  0.17697  0.21751

  * THERMODYNAMIC PROPERTIES FITTED TO 20000.K

 NOTE. WEIGHT FRACTION OF FUEL IN TOTAL FUELS AND OF OXIDANT IN TOTAL OXIDANTS









               THERMODYNAMIC EQUILIBRIUM PROPERTIES AT ASSIGNED

                           TEMPERATURE AND PRESSURE

 CASE =                

             REACTANT                    WT FRACTION      ENERGY      TEMP
                                          (SEE NOTE)     KJ/KG-MOL      K  
             H2                           1.0000000         0.000      0.000

 O/F=    0.00000  %FUEL=100.000000  R,EQ.RATIO= 0.000000  PHI,EQ.RATIO= 0.000000

 THERMODYNAMIC PROPERTIES

 P, BAR            148.00   148.00   148.00   148.00   148.00   148.00   148.00   148.00
 T, K             6310.00  6320.00  6330.00  6340.00  6350.00  6360.00  6370.00  6380.00
 RHO, KG/CU M    3.4562-1 3.4452-1 3.4343-1 3.4235-1 3.4127-1 3.4020-1 3.3915-1 3.3809-1
 H, KJ/KG        258529.9 259344.9 260156.9 260965.8 261771.7 262574.5 263374.1 264170.7
 U, KJ/KG        215708.3 216386.8 217062.3 217734.9 218404.6 219071.3 219735.0 220395.8
 G, KJ/KG       -527622.3-528868.8-530116.6-531365.7-532616.1-533867.7-535120.6-536374.8
 S, KJ/(KG)(K)   124.5883 124.7174 124.8457 124.9734 125.1004 125.2268 125.3524 125.4773

 M, (1/n)           1.225    1.223    1.221    1.219    1.217    1.216    1.214    1.212
 (dLV/dLP)t      -1.11444 -1.11406 -1.11367 -1.11327 -1.11287 -1.11246 -1.11205 -1.11164
 (dLV/dLT)p        2.0136   2.0086   2.0035   1.9984   1.9933   1.9882   1.9830   1.9778
 Cp, KJ/(KG)(K)   81.6525  81.3507  81.0468  80.7408  80.4327  80.1227  79.8109  79.4972
 GAMMAs            1.2862   1.2871   1.2879   1.2887   1.2895   1.2903   1.2911   1.2920
 SON VEL,M/SEC     7421.5   7435.7   7449.8   7464.0   7478.1   7492.2   7506.3   7520.3

 TRANSPORT PROPERTIES (GASES ONLY)
   CONDUCTIVITY IN UNITS OF MILLIWATTS/(CM)(K)

 VISC,MILLIPOISE  0.87344  0.87345  0.87345  0.87345  0.87345  0.87345  0.87345  0.87344

  WITH EQUILIBRIUM REACTIONS

 Cp, KJ/(KG)(K)   81.6525  81.3507  81.0468  80.7408  80.4327  80.1227  79.8109  79.4972
 CONDUCTIVITY    116.0367 115.5740 115.1090 114.6418 114.1725 113.7012 113.2280 112.7530
 PRANDTL NUMBER    0.6146   0.6148   0.6150   0.6152   0.6153   0.6155   0.6157   0.6158

  WITH FROZEN REACTIONS

 Cp, KJ/(KG)(K)   20.7166  20.7166  20.7165  20.7165  20.7164  20.7163  20.7163  20.7162
 CONDUCTIVITY     24.9471  24.9520  24.9568  24.9617  24.9666  24.9715  24.9764  24.9813
 PRANDTL NUMBER    0.7253   0.7252   0.7250   0.7249   0.7248   0.7246   0.7245   0.7243

 MOLE FRACTIONS

 *e-              0.00001  0.00001  0.00001  0.00001  0.00001  0.00001  0.00001  0.00001
 *H               0.78443  0.78638  0.78831  0.79022  0.79211  0.79399  0.79586  0.79771
 *H+              0.00001  0.00001  0.00001  0.00001  0.00001  0.00001  0.00001  0.00001
 *H2              0.21555  0.21360  0.21167  0.20976  0.20786  0.20598  0.20412  0.20227

  * THERMODYNAMIC PROPERTIES FITTED TO 20000.K

 NOTE. WEIGHT FRACTION OF FUEL IN TOTAL FUELS AND OF OXIDANT IN TOTAL OXIDANTS









               THERMODYNAMIC EQUILIBRIUM PROPERTIES AT ASSIGNED

                           TEMPERATURE AND PRESSURE

 CASE =                

             REACTANT                    WT FRACTION      ENERGY      TEMP
                                          (SEE NOTE)     KJ/KG-MOL      K  
             H2                           1.0000000         0.000      0.000

 O/F=    0.00000  %FUEL=100.000000  R,EQ.RATIO= 0.000000  PHI,EQ.RATIO= 0.000000

 THERMODYNAMIC PROPERTIES

 P, BAR            148.00   148.00   148.00   148.00   148.00   148.00   165.00   165.00
 T, K             6390.00  6400.00  6410.00  6420.00  6430.00  6440.00  6300.00  6310.00
 RHO, KG/CU M    3.3705-1 3.3601-1 3.3498-1 3.3396-1 3.3295-1 3.3194-1 3.9147-1 3.9021-1
 H, KJ/KG        264964.1 265754.3 266541.4 267325.2 268105.9 268883.3 252956.8 253781.7
 U, KJ/KG        221053.6 221708.3 222360.0 223008.7 223654.4 224297.0 210808.0 211496.3
 G, KJ/KG       -537630.2-538886.8-540144.7-541403.8-542664.1-543925.6-521764.9-522995.2
 S, KJ/(KG)(K)   125.6016 125.7252 125.8481 125.9702 126.0917 126.2126 122.9717 123.1025

 M, (1/n)           1.210    1.208    1.206    1.204    1.203    1.201    1.243    1.241
 (dLV/dLP)t      -1.11122 -1.11080 -1.11037 -1.10994 -1.10950 -1.10907 -1.11756 -1.11723
 (dLV/dLT)p        1.9726   1.9674   1.9622   1.9569   1.9516   1.9463   2.0428   2.0382
 Cp, KJ/(KG)(K)   79.1818  78.8648  78.5462  78.2261  77.9045  77.5817  82.6252  82.3564
 GAMMAs            1.2928   1.2936   1.2945   1.2953   1.2962   1.2970   1.2826   1.2834
 SON VEL,M/SEC     7534.4   7548.5   7562.5   7576.5   7590.5   7604.5   7352.6   7366.7

 TRANSPORT PROPERTIES (GASES ONLY)
   CONDUCTIVITY IN UNITS OF MILLIWATTS/(CM)(K)

 VISC,MILLIPOISE  0.87343  0.87343  0.87342  0.87340  0.87339  0.87338  0.88285  0.88291

  WITH EQUILIBRIUM REACTIONS

 Cp, KJ/(KG)(K)   79.1818  78.8648  78.5462  78.2261  77.9045  77.5817  82.6252  82.3564
 CONDUCTIVITY    112.2763 111.7981 111.3184 110.8374 110.3550 109.8716 118.9161 118.4929
 PRANDTL NUMBER    0.6160   0.6161   0.6163   0.6164   0.6166   0.6167   0.6134   0.6137

  WITH FROZEN REACTIONS

 Cp, KJ/(KG)(K)   20.7160  20.7159  20.7158  20.7156  20.7154  20.7152  20.7227  20.7228
 CONDUCTIVITY     24.9863  24.9913  24.9963  25.0014  25.0065  25.0117  25.1846  25.1899
 PRANDTL NUMBER    0.7242   0.7240   0.7238   0.7237   0.7235   0.7234   0.7264   0.7263

 MOLE FRACTIONS

 *e-              0.00001  0.00001  0.00001  0.00001  0.00001  0.00001  0.00001  0.00001
 *H               0.79954  0.80136  0.80317  0.80495  0.80673  0.80848  0.76699  0.76902
 *H+              0.00001  0.00001  0.00001  0.00001  0.00001  0.00001  0.00001  0.00001
 *H2              0.20043  0.19861  0.19681  0.19502  0.19325  0.19149  0.23299  0.23096

  * THERMODYNAMIC PROPERTIES FITTED TO 20000.K

 NOTE. WEIGHT FRACTION OF FUEL IN TOTAL FUELS AND OF OXIDANT IN TOTAL OXIDANTS









               THERMODYNAMIC EQUILIBRIUM PROPERTIES AT ASSIGNED

                           TEMPERATURE AND PRESSURE

 CASE =                

             REACTANT                    WT FRACTION      ENERGY      TEMP
                                          (SEE NOTE)     KJ/KG-MOL      K  
             H2                           1.0000000         0.000      0.000

 O/F=    0.00000  %FUEL=100.000000  R,EQ.RATIO= 0.000000  PHI,EQ.RATIO= 0.000000

 THERMODYNAMIC PROPERTIES

 P, BAR            165.00   165.00   165.00   165.00   165.00   165.00   165.00   165.00
 T, K             6320.00  6330.00  6340.00  6350.00  6360.00  6370.00  6380.00  6390.00
 RHO, KG/CU M    3.8895-1 3.8770-1 3.8646-1 3.8523-1 3.8401-1 3.8280-1 3.8160-1 3.8040-1
 H, KJ/KG        254603.9 255423.4 256240.1 257054.1 257865.2 258673.5 259479.0 260281.6
 U, KJ/KG        212181.9 212865.0 213545.3 214223.0 214898.0 215570.3 216239.8 216906.6
 G, KJ/KG       -524226.9-525459.9-526694.2-527929.7-529166.6-530404.7-531644.0-532884.7
 S, KJ/(KG)(K)   123.2327 123.3623 123.4912 123.6195 123.7471 123.8741 124.0005 124.1262

 M, (1/n)           1.239    1.237    1.235    1.233    1.231    1.229    1.227    1.225
 (dLV/dLP)t      -1.11689 -1.11655 -1.11620 -1.11585 -1.11549 -1.11513 -1.11476 -1.11439
 (dLV/dLT)p        2.0336   2.0289   2.0243   2.0195   2.0148   2.0100   2.0052   2.0003
 Cp, KJ/(KG)(K)   82.0849  81.8109  81.5344  81.2556  80.9744  80.6909  80.4052  80.1175
 GAMMAs            1.2842   1.2850   1.2857   1.2865   1.2873   1.2881   1.2889   1.2897
 SON VEL,M/SEC     7380.9   7395.0   7409.1   7423.1   7437.2   7451.3   7465.3   7479.3

 TRANSPORT PROPERTIES (GASES ONLY)
   CONDUCTIVITY IN UNITS OF MILLIWATTS/(CM)(K)

 VISC,MILLIPOISE  0.88296  0.88301  0.88305  0.88310  0.88313  0.88317  0.88320  0.88323

  WITH EQUILIBRIUM REACTIONS

 Cp, KJ/(KG)(K)   82.0849  81.8109  81.5344  81.2556  80.9744  80.6909  80.4052  80.1175
 CONDUCTIVITY    118.0667 117.6376 117.2055 116.7708 116.3334 115.8935 115.4512 115.0065
 PRANDTL NUMBER    0.6139   0.6141   0.6143   0.6145   0.6147   0.6149   0.6151   0.6153

  WITH FROZEN REACTIONS

 Cp, KJ/(KG)(K)   20.7228  20.7228  20.7228  20.7228  20.7227  20.7227  20.7226  20.7225
 CONDUCTIVITY     25.1951  25.2004  25.2056  25.2108  25.2160  25.2211  25.2263  25.2315
 PRANDTL NUMBER    0.7262   0.7261   0.7260   0.7259   0.7258   0.7256   0.7255   0.7254

 MOLE FRACTIONS

 *e-              0.00001  0.00001  0.00001  0.00001  0.00001  0.00001  0.00001  0.00001
 *H               0.77104  0.77304  0.77503  0.77700  0.77895  0.78089  0.78282  0.78473
 *H+              0.00001  0.00001  0.00001  0.00001  0.00001  0.00001  0.00001  0.00001
 *H2              0.22894  0.22694  0.22495  0.22298  0.22103  0.21908  0.21716  0.21525

  * THERMODYNAMIC PROPERTIES FITTED TO 20000.K

 NOTE. WEIGHT FRACTION OF FUEL IN TOTAL FUELS AND OF OXIDANT IN TOTAL OXIDANTS









               THERMODYNAMIC EQUILIBRIUM PROPERTIES AT ASSIGNED

                           TEMPERATURE AND PRESSURE

 CASE =                

             REACTANT                    WT FRACTION      ENERGY      TEMP
                                          (SEE NOTE)     KJ/KG-MOL      K  
             H2                           1.0000000         0.000      0.000

 O/F=    0.00000  %FUEL=100.000000  R,EQ.RATIO= 0.000000  PHI,EQ.RATIO= 0.000000

 THERMODYNAMIC PROPERTIES

 P, BAR            165.00   165.00   165.00   165.00   165.00   180.00   180.00   180.00
 T, K             6400.00  6410.00  6420.00  6430.00  6440.00  6300.00  6310.00  6320.00
 RHO, KG/CU M    3.7922-1 3.7804-1 3.7687-1 3.7571-1 3.7455-1 4.3149-1 4.3008-1 4.2868-1
 H, KJ/KG        261081.4 261878.2 262672.1 263463.0 264251.0 249120.6 249949.2 250775.3
 U, KJ/KG        217570.6 218231.8 218890.2 219545.8 220198.6 207404.3 208096.5 208786.3
 G, KJ/KG       -534126.6-535369.7-536614.1-537859.7-539106.5-518116.2-519334.7-520554.5
 S, KJ/(KG)(K)   124.2512 124.3756 124.4994 124.6225 124.7450 121.7836 121.9150 122.0459

 M, (1/n)           1.223    1.221    1.219    1.217    1.215    1.256    1.254    1.251
 (dLV/dLP)t      -1.11401 -1.11363 -1.11324 -1.11285 -1.11245 -1.11945 -1.11916 -1.11887
 (dLV/dLT)p        1.9954   1.9905   1.9856   1.9807   1.9757   2.0596   2.0554   2.0511
 Cp, KJ/(KG)(K)   79.8276  79.5358  79.2421  78.9466  78.6493  82.9802  82.7366  82.4901
 GAMMAs            1.2905   1.2913   1.2921   1.2929   1.2937   1.2805   1.2812   1.2820
 SON VEL,M/SEC     7493.4   7507.4   7521.4   7535.4   7549.3   7308.7   7322.8   7336.9

 TRANSPORT PROPERTIES (GASES ONLY)
   CONDUCTIVITY IN UNITS OF MILLIWATTS/(CM)(K)

 VISC,MILLIPOISE  0.88326  0.88328  0.88330  0.88332  0.88334  0.89018  0.89028  0.89038

  WITH EQUILIBRIUM REACTIONS

 Cp, KJ/(KG)(K)   79.8276  79.5358  79.2421  78.9466  78.6493  82.9802  82.7366  82.4901
 CONDUCTIVITY    114.5596 114.1106 113.6596 113.2066 112.7519 120.6179 120.2266 119.8319
 PRANDTL NUMBER    0.6155   0.6157   0.6158   0.6160   0.6162   0.6124   0.6127   0.6129

  WITH FROZEN REACTIONS

 Cp, KJ/(KG)(K)   20.7224  20.7223  20.7221  20.7220  20.7218  20.7277  20.7278  20.7278
 CONDUCTIVITY     25.2367  25.2419  25.2471  25.2523  25.2576  25.3776  25.3833  25.3890
 PRANDTL NUMBER    0.7253   0.7251   0.7250   0.7249   0.7247   0.7271   0.7270   0.7269

 MOLE FRACTIONS

 *e-              0.00001  0.00001  0.00001  0.00001  0.00001  0.00001  0.00001  0.00001
 *H               0.78662  0.78850  0.79036  0.79221  0.79405  0.75421  0.75630  0.75837
 *H+              0.00001  0.00001  0.00001  0.00001  0.00001  0.00001  0.00001  0.00001
 *H2              0.21336  0.21148  0.20961  0.20776  0.20593  0.24577  0.24368  0.24161

  * THERMODYNAMIC PROPERTIES FITTED TO 20000.K

 NOTE. WEIGHT FRACTION OF FUEL IN TOTAL FUELS AND OF OXIDANT IN TOTAL OXIDANTS









               THERMODYNAMIC EQUILIBRIUM PROPERTIES AT ASSIGNED

                           TEMPERATURE AND PRESSURE

 CASE =                

             REACTANT                    WT FRACTION      ENERGY      TEMP
                                          (SEE NOTE)     KJ/KG-MOL      K  
             H2                           1.0000000         0.000      0.000

 O/F=    0.00000  %FUEL=100.000000  R,EQ.RATIO= 0.000000  PHI,EQ.RATIO= 0.000000

 THERMODYNAMIC PROPERTIES

 P, BAR            180.00   180.00   180.00   180.00   180.00   180.00   180.00   180.00
 T, K             6330.00  6340.00  6350.00  6360.00  6370.00  6380.00  6390.00  6400.00
 RHO, KG/CU M    4.2730-1 4.2592-1 4.2455-1 4.2320-1 4.2185-1 4.2051-1 4.1918-1 4.1786-1
 H, KJ/KG        251599.0 252420.2 253238.8 254054.8 254868.3 255679.2 256487.4 257293.0
 U, KJ/KG        209473.8 210158.7 210841.2 211521.3 212198.8 212873.8 213546.2 214216.1
 G, KJ/KG       -521775.7-522998.1-524221.8-525446.8-526673.0-527900.6-529129.4-530359.5
 S, KJ/(KG)(K)   122.1761 122.3057 122.4347 122.5631 122.6909 122.8181 122.9447 123.0707

 M, (1/n)           1.249    1.247    1.245    1.243    1.241    1.239    1.237    1.235
 (dLV/dLP)t      -1.11857 -1.11826 -1.11795 -1.11763 -1.11731 -1.11698 -1.11665 -1.11631
 (dLV/dLT)p        2.0468   2.0424   2.0380   2.0336   2.0291   2.0246   2.0201   2.0155
 Cp, KJ/(KG)(K)   82.2409  81.9889  81.7342  81.4770  81.2173  80.9551  80.6905  80.4235
 GAMMAs            1.2828   1.2835   1.2843   1.2850   1.2858   1.2866   1.2873   1.2881
 SON VEL,M/SEC     7350.9   7365.0   7379.0   7393.0   7407.1   7421.1   7435.1   7449.1

 TRANSPORT PROPERTIES (GASES ONLY)
   CONDUCTIVITY IN UNITS OF MILLIWATTS/(CM)(K)

 VISC,MILLIPOISE  0.89046  0.89055  0.89063  0.89070  0.89078  0.89085  0.89091  0.89097

  WITH EQUILIBRIUM REACTIONS

 Cp, KJ/(KG)(K)   82.2409  81.9889  81.7342  81.4770  81.2173  80.9551  80.6905  80.4235
 CONDUCTIVITY    119.4338 119.0324 118.6277 118.2200 117.8092 117.3955 116.9791 116.5599
 PRANDTL NUMBER    0.6132   0.6134   0.6136   0.6139   0.6141   0.6143   0.6145   0.6147

  WITH FROZEN REACTIONS

 Cp, KJ/(KG)(K)   20.7279  20.7279  20.7279  20.7279  20.7279  20.7278  20.7278  20.7277
 CONDUCTIVITY     25.3947  25.4003  25.4059  25.4115  25.4170  25.4225  25.4280  25.4335
 PRANDTL NUMBER    0.7268   0.7267   0.7266   0.7265   0.7264   0.7263   0.7262   0.7261

 MOLE FRACTIONS

 *e-              0.00001  0.00001  0.00001  0.00001  0.00001  0.00001  0.00001  0.00001
 *H               0.76043  0.76247  0.76449  0.76651  0.76850  0.77048  0.77245  0.77440
 *H+              0.00001  0.00001  0.00001  0.00001  0.00001  0.00001  0.00001  0.00001
 *H2              0.23955  0.23751  0.23549  0.23347  0.23148  0.22949  0.22753  0.22558

  * THERMODYNAMIC PROPERTIES FITTED TO 20000.K

 NOTE. WEIGHT FRACTION OF FUEL IN TOTAL FUELS AND OF OXIDANT IN TOTAL OXIDANTS









               THERMODYNAMIC EQUILIBRIUM PROPERTIES AT ASSIGNED

                           TEMPERATURE AND PRESSURE

 CASE =                

             REACTANT                    WT FRACTION      ENERGY      TEMP
                                          (SEE NOTE)     KJ/KG-MOL      K  
             H2                           1.0000000         0.000      0.000

 O/F=    0.00000  %FUEL=100.000000  R,EQ.RATIO= 0.000000  PHI,EQ.RATIO= 0.000000

 THERMODYNAMIC PROPERTIES

 P, BAR            180.00   180.00   180.00   180.00   200.00   200.00   200.00   200.00
 T, K             6410.00  6420.00  6430.00  6440.00  6300.00  6310.00  6320.00  6330.00
 RHO, KG/CU M    4.1655-1 4.1524-1 4.1395-1 4.1267-1 4.8555-1 4.8396-1 4.8237-1 4.8080-1
 H, KJ/KG        258095.9 258896.1 259693.5 260488.2 244454.2 245285.0 246113.7 246940.3
 U, KJ/KG        214883.3 215548.0 216210.1 216869.5 203263.9 203958.9 204651.9 205342.7
 G, KJ/KG       -531590.8-532823.4-534057.2-535292.3-513748.7-514952.8-516158.3-517365.1
 S, KJ/(KG)(K)   123.1960 123.3208 123.4449 123.5684 120.3497 120.4814 120.6127 120.7433

 M, (1/n)           1.233    1.231    1.229    1.228    1.272    1.270    1.267    1.265
 (dLV/dLP)t      -1.11597 -1.11562 -1.11526 -1.11491 -1.12138 -1.12114 -1.12090 -1.12066
 (dLV/dLT)p        2.0109   2.0063   2.0017   1.9970   2.0767   2.0729   2.0691   2.0652
 Cp, KJ/(KG)(K)   80.1544  79.8830  79.6095  79.3339  83.1925  82.9798  82.7640  82.5451
 GAMMAs            1.2889   1.2897   1.2905   1.2913   1.2781   1.2788   1.2795   1.2802
 SON VEL,M/SEC     7463.0   7477.0   7491.0   7504.9   7255.6   7269.6   7283.6   7297.6

 TRANSPORT PROPERTIES (GASES ONLY)
   CONDUCTIVITY IN UNITS OF MILLIWATTS/(CM)(K)

 VISC,MILLIPOISE  0.89103  0.89109  0.89114  0.89119  0.89876  0.89892  0.89907  0.89921

  WITH EQUILIBRIUM REACTIONS

 Cp, KJ/(KG)(K)   80.1544  79.8830  79.6095  79.3339  83.1925  82.9798  82.7640  82.5451
 CONDUCTIVITY    116.1381 115.7139 115.2872 114.8582 122.3869 122.0364 121.6820 121.3237
 PRANDTL NUMBER    0.6150   0.6152   0.6154   0.6156   0.6109   0.6112   0.6115   0.6118

  WITH FROZEN REACTIONS

 Cp, KJ/(KG)(K)   20.7276  20.7275  20.7273  20.7272  20.7337  20.7339  20.7340  20.7341
 CONDUCTIVITY     25.4389  25.4444  25.4499  25.4553  25.6088  25.6153  25.6217  25.6281
 PRANDTL NUMBER    0.7260   0.7259   0.7258   0.7257   0.7277   0.7276   0.7276   0.7275

 MOLE FRACTIONS

 *e-              0.00001  0.00001  0.00001  0.00001  0.00001  0.00001  0.00001  0.00001
 *H               0.77634  0.77826  0.78017  0.78206  0.73830  0.74045  0.74258  0.74470
 *H+              0.00001  0.00001  0.00001  0.00001  0.00001  0.00001  0.00001  0.00001
 *H2              0.22364  0.22172  0.21981  0.21792  0.26168  0.25953  0.25740  0.25528

  * THERMODYNAMIC PROPERTIES FITTED TO 20000.K

 NOTE. WEIGHT FRACTION OF FUEL IN TOTAL FUELS AND OF OXIDANT IN TOTAL OXIDANTS









               THERMODYNAMIC EQUILIBRIUM PROPERTIES AT ASSIGNED

                           TEMPERATURE AND PRESSURE

 CASE =                

             REACTANT                    WT FRACTION      ENERGY      TEMP
                                          (SEE NOTE)     KJ/KG-MOL      K  
             H2                           1.0000000         0.000      0.000

 O/F=    0.00000  %FUEL=100.000000  R,EQ.RATIO= 0.000000  PHI,EQ.RATIO= 0.000000

 THERMODYNAMIC PROPERTIES

 P, BAR            200.00   200.00   200.00   200.00   200.00   200.00   200.00   200.00
 T, K             6340.00  6350.00  6360.00  6370.00  6380.00  6390.00  6400.00  6410.00
 RHO, KG/CU M    4.7923-1 4.7768-1 4.7614-1 4.7461-1 4.7309-1 4.7157-1 4.7007-1 4.6858-1
 H, KJ/KG        247764.6 248586.7 249406.6 250224.2 251039.4 251852.3 252662.8 253471.0
 U, KJ/KG        206031.4 206717.8 207402.0 208084.0 208763.7 209441.1 210116.2 210789.0
 G, KJ/KG       -518573.2-519782.6-520993.2-522205.2-523418.4-524633.0-525848.8-527065.8
 S, KJ/(KG)(K)   120.8735 121.0030 121.1320 121.2605 121.3884 121.5157 121.6424 121.7686

 M, (1/n)           1.263    1.261    1.259    1.257    1.255    1.253    1.251    1.249
 (dLV/dLP)t      -1.12040 -1.12014 -1.11988 -1.11961 -1.11933 -1.11905 -1.11876 -1.11846
 (dLV/dLT)p        2.0613   2.0573   2.0533   2.0493   2.0452   2.0411   2.0369   2.0327
 Cp, KJ/(KG)(K)   82.3233  82.0987  81.8711  81.6408  81.4078  81.1721  80.9338  80.6929
 GAMMAs            1.2810   1.2817   1.2824   1.2832   1.2839   1.2847   1.2854   1.2862
 SON VEL,M/SEC     7311.5   7325.5   7339.5   7353.4   7367.4   7381.3   7395.3   7409.2

 TRANSPORT PROPERTIES (GASES ONLY)
   CONDUCTIVITY IN UNITS OF MILLIWATTS/(CM)(K)

 VISC,MILLIPOISE  0.89935  0.89948  0.89961  0.89974  0.89985  0.89997  0.90008  0.90019

  WITH EQUILIBRIUM REACTIONS

 Cp, KJ/(KG)(K)   82.3233  82.0987  81.8711  81.6408  81.4078  81.1721  80.9338  80.6929
 CONDUCTIVITY    120.9615 120.5957 120.2263 119.8533 119.4769 119.0973 118.7143 118.3283
 PRANDTL NUMBER    0.6121   0.6123   0.6126   0.6129   0.6131   0.6134   0.6136   0.6139

  WITH FROZEN REACTIONS

 Cp, KJ/(KG)(K)   20.7341  20.7342  20.7342  20.7342  20.7342  20.7342  20.7341  20.7341
 CONDUCTIVITY     25.6344  25.6406  25.6468  25.6529  25.6590  25.6650  25.6710  25.6770
 PRANDTL NUMBER    0.7274   0.7274   0.7273   0.7272   0.7271   0.7271   0.7270   0.7269

 MOLE FRACTIONS

 *e-              0.00001  0.00001  0.00001  0.00001  0.00001  0.00001  0.00001  0.00001
 *H               0.74681  0.74890  0.75097  0.75303  0.75508  0.75711  0.75913  0.76113
 *H+              0.00001  0.00001  0.00001  0.00001  0.00001  0.00001  0.00001  0.00001
 *H2              0.25317  0.25108  0.24901  0.24695  0.24490  0.24287  0.24085  0.23885

  * THERMODYNAMIC PROPERTIES FITTED TO 20000.K

 NOTE. WEIGHT FRACTION OF FUEL IN TOTAL FUELS AND OF OXIDANT IN TOTAL OXIDANTS









               THERMODYNAMIC EQUILIBRIUM PROPERTIES AT ASSIGNED

                           TEMPERATURE AND PRESSURE

 CASE =                

             REACTANT                    WT FRACTION      ENERGY      TEMP
                                          (SEE NOTE)     KJ/KG-MOL      K  
             H2                           1.0000000         0.000      0.000

 O/F=    0.00000  %FUEL=100.000000  R,EQ.RATIO= 0.000000  PHI,EQ.RATIO= 0.000000

 THERMODYNAMIC PROPERTIES

 P, BAR            200.00   200.00   200.00   225.00   225.00   225.00   225.00   225.00
 T, K             6420.00  6430.00  6440.00  6300.00  6310.00  6320.00  6330.00  6340.00
 RHO, KG/CU M    4.6710-1 4.6563-1 4.6417-1 5.5417-1 5.5233-1 5.5051-1 5.4870-1 5.4690-1
 H, KJ/KG        254276.7 255080.0 255880.8 239230.3 240061.0 240889.8 241716.8 242542.0
 U, KJ/KG        211459.4 212127.4 212793.0 198628.9 199324.8 200018.8 200711.0 201401.3
 G, KJ/KG       -528284.1-529503.7-530724.5-508931.9-510120.1-511309.6-512500.4-513692.6
 S, KJ/(KG)(K)   121.8942 122.0192 122.1437 118.7559 118.8876 119.0189 119.1497 119.2799

 M, (1/n)           1.247    1.245    1.243    1.290    1.288    1.286    1.283    1.281
 (dLV/dLP)t      -1.11816 -1.11786 -1.11755 -1.12305 -1.12288 -1.12270 -1.12251 -1.12232
 (dLV/dLT)p        2.0285   2.0242   2.0199   2.0915   2.0883   2.0850   2.0816   2.0782
 Cp, KJ/(KG)(K)   80.4496  80.2039  79.9558  83.1537  82.9753  82.7937  82.6089  82.4210
 GAMMAs            1.2869   1.2877   1.2884   1.2755   1.2762   1.2769   1.2776   1.2783
 SON VEL,M/SEC     7423.1   7437.0   7450.9   7196.3   7210.2   7224.1   7238.0   7251.9

 TRANSPORT PROPERTIES (GASES ONLY)
   CONDUCTIVITY IN UNITS OF MILLIWATTS/(CM)(K)

 VISC,MILLIPOISE  0.90029  0.90038  0.90048  0.90790  0.90813  0.90835  0.90856  0.90877

  WITH EQUILIBRIUM REACTIONS

 Cp, KJ/(KG)(K)   80.4496  80.2039  79.9558  83.1537  82.9753  82.7937  82.6089  82.4210
 CONDUCTIVITY    117.9392 117.5471 117.1523 123.9745 123.6715 123.3642 123.0525 122.7366
 PRANDTL NUMBER    0.6141   0.6143   0.6146   0.6090   0.6093   0.6096   0.6099   0.6103

  WITH FROZEN REACTIONS

 Cp, KJ/(KG)(K)   20.7340  20.7339  20.7337  20.7405  20.7407  20.7409  20.7410  20.7411
 CONDUCTIVITY     25.6829  25.6888  25.6947  25.8625  25.8701  25.8775  25.8849  25.8921
 PRANDTL NUMBER    0.7268   0.7267   0.7266   0.7281   0.7281   0.7280   0.7280   0.7280

 MOLE FRACTIONS

 *e-              0.00001  0.00001  0.00001  0.00001  0.00001  0.00001  0.00001  0.00001
 *H               0.76312  0.76509  0.76705  0.72000  0.72221  0.72441  0.72659  0.72876
 *H+              0.00001  0.00001  0.00001  0.00001  0.00001  0.00001  0.00001  0.00001
 *H2              0.23686  0.23489  0.23293  0.27998  0.27777  0.27557  0.27339  0.27122

  * THERMODYNAMIC PROPERTIES FITTED TO 20000.K

 NOTE. WEIGHT FRACTION OF FUEL IN TOTAL FUELS AND OF OXIDANT IN TOTAL OXIDANTS









               THERMODYNAMIC EQUILIBRIUM PROPERTIES AT ASSIGNED

                           TEMPERATURE AND PRESSURE

 CASE =                

             REACTANT                    WT FRACTION      ENERGY      TEMP
                                          (SEE NOTE)     KJ/KG-MOL      K  
             H2                           1.0000000         0.000      0.000

 O/F=    0.00000  %FUEL=100.000000  R,EQ.RATIO= 0.000000  PHI,EQ.RATIO= 0.000000

 THERMODYNAMIC PROPERTIES

 P, BAR            225.00   225.00   225.00   225.00   225.00   225.00   225.00   225.00
 T, K             6350.00  6360.00  6370.00  6380.00  6390.00  6400.00  6410.00  6420.00
 RHO, KG/CU M    5.4512-1 5.4334-1 5.4158-1 5.3983-1 5.3808-1 5.3636-1 5.3464-1 5.3293-1
 H, KJ/KG        243365.3 244186.6 245006.0 245823.3 246638.7 247452.1 248263.3 249072.5
 U, KJ/KG        202089.7 202776.1 203460.6 204143.2 204823.7 205502.2 206178.7 206853.1
 G, KJ/KG       -514886.0-516080.8-517276.8-518474.1-519672.7-520872.6-522073.7-523276.2
 S, KJ/(KG)(K)   119.4097 119.5389 119.6676 119.7958 119.9235 120.0507 120.1774 120.3035

 M, (1/n)           1.279    1.277    1.275    1.273    1.271    1.268    1.266    1.264
 (dLV/dLP)t      -1.12212 -1.12192 -1.12170 -1.12148 -1.12126 -1.12103 -1.12079 -1.12055
 (dLV/dLT)p        2.0747   2.0712   2.0676   2.0640   2.0604   2.0567   2.0530   2.0492
 Cp, KJ/(KG)(K)   82.2299  82.0358  81.8387  81.6387  81.4358  81.2301  81.0215  80.8103
 GAMMAs            1.2790   1.2797   1.2804   1.2811   1.2818   1.2826   1.2833   1.2840
 SON VEL,M/SEC     7265.8   7279.6   7293.5   7307.4   7321.2   7335.1   7348.9   7362.7

 TRANSPORT PROPERTIES (GASES ONLY)
   CONDUCTIVITY IN UNITS OF MILLIWATTS/(CM)(K)

 VISC,MILLIPOISE  0.90897  0.90917  0.90935  0.90954  0.90972  0.90989  0.91006  0.91022

  WITH EQUILIBRIUM REACTIONS

 Cp, KJ/(KG)(K)   82.2299  82.0358  81.8387  81.6387  81.4358  81.2301  81.0215  80.8103
 CONDUCTIVITY    122.4164 122.0923 121.7641 121.4320 121.0961 120.7565 120.4132 120.0663
 PRANDTL NUMBER    0.6106   0.6109   0.6112   0.6115   0.6118   0.6121   0.6123   0.6126

  WITH FROZEN REACTIONS

 Cp, KJ/(KG)(K)   20.7412  20.7413  20.7413  20.7414  20.7414  20.7414  20.7413  20.7413
 CONDUCTIVITY     25.8993  25.9064  25.9134  25.9203  25.9272  25.9339  25.9406  25.9473
 PRANDTL NUMBER    0.7279   0.7279   0.7279   0.7278   0.7278   0.7277   0.7277   0.7276

 MOLE FRACTIONS

 *e-              0.00001  0.00001  0.00001  0.00001  0.00001  0.00001  0.00001  0.00001
 *H               0.73092  0.73306  0.73518  0.73729  0.73939  0.74148  0.74355  0.74560
 *H+              0.00001  0.00001  0.00001  0.00001  0.00001  0.00001  0.00001  0.00001
 *H2              0.26907  0.26693  0.26480  0.26269  0.26059  0.25850  0.25643  0.25438

  * THERMODYNAMIC PROPERTIES FITTED TO 20000.K

 NOTE. WEIGHT FRACTION OF FUEL IN TOTAL FUELS AND OF OXIDANT IN TOTAL OXIDANTS









               THERMODYNAMIC EQUILIBRIUM PROPERTIES AT ASSIGNED

                           TEMPERATURE AND PRESSURE

 CASE =                

             REACTANT                    WT FRACTION      ENERGY      TEMP
                                          (SEE NOTE)     KJ/KG-MOL      K  
             H2                           1.0000000         0.000      0.000

 O/F=    0.00000  %FUEL=100.000000  R,EQ.RATIO= 0.000000  PHI,EQ.RATIO= 0.000000

 THERMODYNAMIC PROPERTIES

 P, BAR            225.00   225.00   250.00   250.00   250.00   250.00   250.00   250.00
 T, K             6430.00  6440.00  6300.00  6310.00  6320.00  6330.00  6340.00  6350.00
 RHO, KG/CU M    5.3123-1 5.2955-1 6.2381-1 6.2174-1 6.1968-1 6.1763-1 6.1560-1 6.1357-1
 H, KJ/KG        249879.5 250684.4 234569.9 235398.0 236224.6 237049.6 237873.1 238695.0
 U, KJ/KG        207525.4 208195.5 194493.9 195188.3 195881.1 196572.4 197262.1 197950.1
 G, KJ/KG       -524479.8-525684.7-504681.8-505855.8-507031.2-508207.9-509385.9-510565.2
 S, KJ/(KG)(K)   120.4291 120.5542 117.3415 117.4729 117.6038 117.7342 117.8642 117.9937

 M, (1/n)           1.262    1.260    1.307    1.305    1.303    1.300    1.298    1.296
 (dLV/dLP)t      -1.12030 -1.12005 -1.12411 -1.12399 -1.12387 -1.12374 -1.12360 -1.12345
 (dLV/dLT)p        2.0454   2.0416   2.1009   2.0981   2.0953   2.0924   2.0894   2.0864
 Cp, KJ/(KG)(K)   80.5963  80.3798  82.8814  82.7331  82.5815  82.4266  82.2685  82.1071
 GAMMAs            1.2847   1.2855   1.2733   1.2740   1.2747   1.2754   1.2760   1.2767
 SON VEL,M/SEC     7376.6   7390.4   7143.6   7157.4   7171.1   7184.9   7198.7   7212.5

 TRANSPORT PROPERTIES (GASES ONLY)
   CONDUCTIVITY IN UNITS OF MILLIWATTS/(CM)(K)

 VISC,MILLIPOISE  0.91037  0.91053  0.91563  0.91592  0.91621  0.91649  0.91677  0.91703

  WITH EQUILIBRIUM REACTIONS

 Cp, KJ/(KG)(K)   80.5963  80.3798  82.8814  82.7331  82.5815  82.4266  82.2685  82.1071
 CONDUCTIVITY    119.7160 119.3623 125.0401 124.7807 124.5166 124.2478 123.9744 123.6966
 PRANDTL NUMBER    0.6129   0.6132   0.6069   0.6073   0.6076   0.6080   0.6084   0.6087

  WITH FROZEN REACTIONS

 Cp, KJ/(KG)(K)   20.7412  20.7411  20.7466  20.7468  20.7470  20.7472  20.7474  20.7475
 CONDUCTIVITY     25.9539  25.9605  26.0838  26.0924  26.1010  26.1094  26.1177  26.1259
 PRANDTL NUMBER    0.7275   0.7275   0.7283   0.7283   0.7283   0.7283   0.7283   0.7283

 MOLE FRACTIONS

 *e-              0.00001  0.00001  0.00001  0.00001  0.00001  0.00001  0.00001  0.00001
 *H               0.74765  0.74967  0.70323  0.70548  0.70773  0.70996  0.71218  0.71439
 *H+              0.00001  0.00001  0.00001  0.00001  0.00001  0.00001  0.00001  0.00001
 *H2              0.25233  0.25030  0.29676  0.29450  0.29225  0.29002  0.28780  0.28560

  * THERMODYNAMIC PROPERTIES FITTED TO 20000.K

 NOTE. WEIGHT FRACTION OF FUEL IN TOTAL FUELS AND OF OXIDANT IN TOTAL OXIDANTS









               THERMODYNAMIC EQUILIBRIUM PROPERTIES AT ASSIGNED

                           TEMPERATURE AND PRESSURE

 CASE =                

             REACTANT                    WT FRACTION      ENERGY      TEMP
                                          (SEE NOTE)     KJ/KG-MOL      K  
             H2                           1.0000000         0.000      0.000

 O/F=    0.00000  %FUEL=100.000000  R,EQ.RATIO= 0.000000  PHI,EQ.RATIO= 0.000000

 THERMODYNAMIC PROPERTIES

 P, BAR            250.00   250.00   250.00   250.00   250.00   250.00   250.00   250.00
 T, K             6360.00  6370.00  6380.00  6390.00  6400.00  6410.00  6420.00  6430.00
 RHO, KG/CU M    6.1156-1 6.0957-1 6.0758-1 6.0561-1 6.0365-1 6.0170-1 5.9977-1 5.9785-1
 H, KJ/KG        239515.2 240333.8 241150.7 241965.9 242779.3 243591.0 244400.8 245208.8
 U, KJ/KG        198636.4 199321.1 200004.1 200685.3 201364.7 202042.3 202718.2 203392.1
 G, KJ/KG       -511745.8-512927.6-514110.8-515295.2-516480.9-517667.9-518856.2-520045.7
 S, KJ/(KG)(K)   118.1228 118.2514 118.3796 118.5072 118.6344 118.7611 118.8874 119.0131

 M, (1/n)           1.294    1.291    1.289    1.287    1.285    1.283    1.281    1.278
 (dLV/dLP)t      -1.12330 -1.12314 -1.12298 -1.12281 -1.12263 -1.12245 -1.12226 -1.12206
 (dLV/dLT)p        2.0834   2.0803   2.0771   2.0739   2.0707   2.0674   2.0641   2.0607
 Cp, KJ/(KG)(K)   81.9427  81.7751  81.6044  81.4307  81.2540  81.0744  80.8919  80.7066
 GAMMAs            1.2774   1.2781   1.2788   1.2795   1.2802   1.2809   1.2816   1.2823
 SON VEL,M/SEC     7226.2   7240.0   7253.8   7267.5   7281.3   7295.1   7308.8   7322.6

 TRANSPORT PROPERTIES (GASES ONLY)
   CONDUCTIVITY IN UNITS OF MILLIWATTS/(CM)(K)

 VISC,MILLIPOISE  0.91729  0.91755  0.91780  0.91804  0.91827  0.91850  0.91872  0.91894

  WITH EQUILIBRIUM REACTIONS

 Cp, KJ/(KG)(K)   81.9427  81.7751  81.6044  81.4307  81.2540  81.0744  80.8919  80.7066
 CONDUCTIVITY    123.4143 123.1277 122.8369 122.5418 122.2427 121.9395 121.6324 121.3215
 PRANDTL NUMBER    0.6091   0.6094   0.6097   0.6100   0.6104   0.6107   0.6110   0.6113

  WITH FROZEN REACTIONS

 Cp, KJ/(KG)(K)   20.7476  20.7477  20.7478  20.7479  20.7479  20.7479  20.7479  20.7478
 CONDUCTIVITY     26.1339  26.1419  26.1498  26.1575  26.1652  26.1728  26.1803  26.1877
 PRANDTL NUMBER    0.7282   0.7282   0.7282   0.7282   0.7281   0.7281   0.7281   0.7281

 MOLE FRACTIONS

 *e-              0.00001  0.00001  0.00001  0.00001  0.00001  0.00001  0.00001  0.00001
 *H               0.71658  0.71876  0.72092  0.72308  0.72522  0.72734  0.72945  0.73155
 *H+              0.00001  0.00001  0.00001  0.00001  0.00001  0.00001  0.00001  0.00001
 *H2              0.28340  0.28122  0.27906  0.27690  0.27477  0.27264  0.27053  0.26843

  * THERMODYNAMIC PROPERTIES FITTED TO 20000.K

 NOTE. WEIGHT FRACTION OF FUEL IN TOTAL FUELS AND OF OXIDANT IN TOTAL OXIDANTS









               THERMODYNAMIC EQUILIBRIUM PROPERTIES AT ASSIGNED

                           TEMPERATURE AND PRESSURE

 CASE =                

             REACTANT                    WT FRACTION      ENERGY      TEMP
                                          (SEE NOTE)     KJ/KG-MOL      K  
             H2                           1.0000000         0.000      0.000

 O/F=    0.00000  %FUEL=100.000000  R,EQ.RATIO= 0.000000  PHI,EQ.RATIO= 0.000000

 THERMODYNAMIC PROPERTIES

 P, BAR            250.00
 T, K             6440.00
 RHO, KG/CU M    5.9594-1
 H, KJ/KG        246014.9
 U, KJ/KG        204064.3
 G, KJ/KG       -521236.4
 S, KJ/(KG)(K)   119.1384

 M, (1/n)           1.276
 (dLV/dLP)t      -1.12186
 (dLV/dLT)p        2.0573
 Cp, KJ/(KG)(K)   80.5184
 GAMMAs            1.2830
 SON VEL,M/SEC     7336.3

 TRANSPORT PROPERTIES (GASES ONLY)
   CONDUCTIVITY IN UNITS OF MILLIWATTS/(CM)(K)

 VISC,MILLIPOISE  0.91915

  WITH EQUILIBRIUM REACTIONS

 Cp, KJ/(KG)(K)   80.5184
 CONDUCTIVITY    121.0068
 PRANDTL NUMBER    0.6116

  WITH FROZEN REACTIONS

 Cp, KJ/(KG)(K)   20.7478
 CONDUCTIVITY     26.1950
 PRANDTL NUMBER    0.7280

 MOLE FRACTIONS

 *e-              0.00001
 *H               0.73364
 *H+              0.00001
 *H2              0.26634

  * THERMODYNAMIC PROPERTIES FITTED TO 20000.K

 NOTE. WEIGHT FRACTION OF FUEL IN TOTAL FUELS AND OF OXIDANT IN TOTAL OXIDANTS



  
