
 *******************************************************************************

         NASA-GLENN CHEMICAL EQUILIBRIUM PROGRAM CEA2, MAY 21, 2004
                   BY  BONNIE MCBRIDE AND SANFORD GORDON
      REFS: NASA RP-1311, PART I, 1994 AND NASA RP-1311, PART II, 1996

 *******************************************************************************



  prob tp ions
  p,bar= 0.11,0.12,0.132,0.148,0.165,0.18,0.2,0.225,0.25,0.28,0.31,0.35,0.39,0.44
 ,0.49
  t,k= 575,580,585,590,595,600,605,610,615,620,625,630,635,640,645
  
  reac
  na H2                wt%=100.0000
  
  output short
  output siunits
  output transport
  
 end





               THERMODYNAMIC EQUILIBRIUM PROPERTIES AT ASSIGNED

                           TEMPERATURE AND PRESSURE

 CASE =                

             REACTANT                    WT FRACTION      ENERGY      TEMP
                                          (SEE NOTE)     KJ/KG-MOL      K  
             H2                           1.0000000         0.000      0.000

 O/F=    0.00000  %FUEL=100.000000  R,EQ.RATIO= 0.000000  PHI,EQ.RATIO= 0.000000

 THERMODYNAMIC PROPERTIES

 P, BAR           0.11000  0.11000  0.11000  0.11000  0.11000  0.11000  0.11000  0.11000
 T, K              575.00   580.00   585.00   590.00   595.00   600.00   605.00   610.00
 RHO, KG/CU M    4.6382-3 4.5983-3 4.5590-3 4.5203-3 4.4823-3 4.4450-3 4.4083-3 4.3721-3
 H, KJ/KG         4007.20  4079.87  4152.54  4225.23  4297.93  4370.65  4443.37  4516.11
 U, KJ/KG         1635.61  1687.66  1739.72  1791.78  1843.86  1895.95  1948.05  2000.17
 G, KJ/KG        -43964.8 -44382.2 -44800.3 -45219.0 -45638.3 -46058.2 -46478.8 -46899.9
 S, KJ/(KG)(K)    83.4296  83.5553  83.6800  83.8037  83.9264  84.0481  84.1688  84.2886

 M, (1/n)           2.016    2.016    2.016    2.016    2.016    2.016    2.016    2.016
 (dLV/dLP)t      -1.00000 -1.00000 -1.00000 -1.00000 -1.00000 -1.00000 -1.00000 -1.00000
 (dLV/dLT)p        1.0000   1.0000   1.0000   1.0000   1.0000   1.0000   1.0000   1.0000
 Cp, KJ/(KG)(K)   14.5330  14.5350  14.5370  14.5391  14.5413  14.5436  14.5460  14.5484
 GAMMAs            1.3963   1.3962   1.3961   1.3960   1.3960   1.3959   1.3958   1.3957
 SON VEL,M/SEC     1819.7   1827.6   1835.4   1843.1   1850.9   1858.6   1866.3   1873.9

 TRANSPORT PROPERTIES (GASES ONLY)
   CONDUCTIVITY IN UNITS OF MILLIWATTS/(CM)(K)

 VISC,MILLIPOISE  0.13959  0.14044  0.14128  0.14211  0.14294  0.14377  0.14460  0.14542

  WITH EQUILIBRIUM REACTIONS

 Cp, KJ/(KG)(K)   14.5330  14.5350  14.5370  14.5391  14.5413  14.5436  14.5460  14.5484
 CONDUCTIVITY      2.9432   2.9622   2.9804   2.9984   3.0163   3.0342   3.0520   3.0698
 PRANDTL NUMBER    0.6893   0.6891   0.6891   0.6891   0.6891   0.6891   0.6892   0.6892

  WITH FROZEN REACTIONS

 Cp, KJ/(KG)(K)   14.5330  14.5350  14.5370  14.5391  14.5413  14.5436  14.5460  14.5484
 CONDUCTIVITY      2.9432   2.9622   2.9804   2.9984   3.0163   3.0342   3.0520   3.0698
 PRANDTL NUMBER    0.6893   0.6891   0.6891   0.6891   0.6891   0.6891   0.6892   0.6892

 MOLE FRACTIONS

 *H2              1.00000  1.00000  1.00000  1.00000  1.00000  1.00000  1.00000  1.00000

  * THERMODYNAMIC PROPERTIES FITTED TO 20000.K

 NOTE. WEIGHT FRACTION OF FUEL IN TOTAL FUELS AND OF OXIDANT IN TOTAL OXIDANTS









               THERMODYNAMIC EQUILIBRIUM PROPERTIES AT ASSIGNED

                           TEMPERATURE AND PRESSURE

 CASE =                

             REACTANT                    WT FRACTION      ENERGY      TEMP
                                          (SEE NOTE)     KJ/KG-MOL      K  
             H2                           1.0000000         0.000      0.000

 O/F=    0.00000  %FUEL=100.000000  R,EQ.RATIO= 0.000000  PHI,EQ.RATIO= 0.000000

 THERMODYNAMIC PROPERTIES

 P, BAR           0.11000  0.11000  0.11000  0.11000  0.11000  0.11000  0.11000  0.12000
 T, K              615.00   620.00   625.00   630.00   635.00   640.00   645.00   575.00
 RHO, KG/CU M    4.3366-3 4.3016-3 4.2672-3 4.2333-3 4.2000-3 4.1672-3 4.1349-3 5.0599-3
 H, KJ/KG         4588.85  4661.62  4734.39  4807.18  4879.98  4952.80  5025.63  4007.20
 U, KJ/KG         2052.29  2104.43  2156.58  2208.75  2260.93  2313.12  2365.33  1635.61
 G, KJ/KG        -47321.7 -47744.0 -48166.9 -48590.4 -49014.5 -49439.1 -49864.4 -43758.4
 S, KJ/(KG)(K)    84.4073  84.5252  84.6421  84.7581  84.8732  84.9874  85.1008  83.0706

 M, (1/n)           2.016    2.016    2.016    2.016    2.016    2.016    2.016    2.016
 (dLV/dLP)t      -1.00000 -1.00000 -1.00000 -1.00000 -1.00000 -1.00000 -1.00000 -1.00000
 (dLV/dLT)p        1.0000   1.0000   1.0000   1.0000   1.0000   1.0000   1.0000   1.0000
 Cp, KJ/(KG)(K)   14.5509  14.5535  14.5562  14.5590  14.5618  14.5648  14.5678  14.5330
 GAMMAs            1.3956   1.3955   1.3954   1.3953   1.3952   1.3951   1.3949   1.3963
 SON VEL,M/SEC     1881.5   1889.1   1896.6   1904.1   1911.6   1919.0   1926.4   1819.7

 TRANSPORT PROPERTIES (GASES ONLY)
   CONDUCTIVITY IN UNITS OF MILLIWATTS/(CM)(K)

 VISC,MILLIPOISE  0.14625  0.14707  0.14789  0.14871  0.14952  0.15034  0.15115  0.13960

  WITH EQUILIBRIUM REACTIONS

 Cp, KJ/(KG)(K)   14.5509  14.5535  14.5562  14.5590  14.5618  14.5648  14.5678  14.5330
 CONDUCTIVITY      3.0876   3.1054   3.1232   3.1410   3.1587   3.1764   3.1942   2.9442
 PRANDTL NUMBER    0.6892   0.6892   0.6893   0.6893   0.6893   0.6893   0.6894   0.6891

  WITH FROZEN REACTIONS

 Cp, KJ/(KG)(K)   14.5509  14.5535  14.5562  14.5590  14.5618  14.5648  14.5678  14.5330
 CONDUCTIVITY      3.0876   3.1054   3.1232   3.1410   3.1587   3.1764   3.1942   2.9442
 PRANDTL NUMBER    0.6892   0.6892   0.6893   0.6893   0.6893   0.6893   0.6894   0.6891

 MOLE FRACTIONS

 *H2              1.00000  1.00000  1.00000  1.00000  1.00000  1.00000  1.00000  1.00000

  * THERMODYNAMIC PROPERTIES FITTED TO 20000.K

 NOTE. WEIGHT FRACTION OF FUEL IN TOTAL FUELS AND OF OXIDANT IN TOTAL OXIDANTS









               THERMODYNAMIC EQUILIBRIUM PROPERTIES AT ASSIGNED

                           TEMPERATURE AND PRESSURE

 CASE =                

             REACTANT                    WT FRACTION      ENERGY      TEMP
                                          (SEE NOTE)     KJ/KG-MOL      K  
             H2                           1.0000000         0.000      0.000

 O/F=    0.00000  %FUEL=100.000000  R,EQ.RATIO= 0.000000  PHI,EQ.RATIO= 0.000000

 THERMODYNAMIC PROPERTIES

 P, BAR           0.12000  0.12000  0.12000  0.12000  0.12000  0.12000  0.12000  0.12000
 T, K              580.00   585.00   590.00   595.00   600.00   605.00   610.00   615.00
 RHO, KG/CU M    5.0163-3 4.9734-3 4.9313-3 4.8898-3 4.8491-3 4.8090-3 4.7696-3 4.7308-3
 H, KJ/KG         4079.86  4152.54  4225.23  4297.93  4370.65  4443.37  4516.11  4588.85
 U, KJ/KG         1687.66  1739.72  1791.78  1843.86  1895.95  1948.05  2000.17  2052.29
 G, KJ/KG        -44174.0 -44590.3 -45007.2 -45424.8 -45842.9 -46261.7 -46681.0 -47101.0
 S, KJ/(KG)(K)    83.1964  83.3211  83.4449  83.5676  83.6893  83.8100  83.9297  84.0485

 M, (1/n)           2.016    2.016    2.016    2.016    2.016    2.016    2.016    2.016
 (dLV/dLP)t      -1.00000 -1.00000 -1.00000 -1.00000 -1.00000 -1.00000 -1.00000 -1.00000
 (dLV/dLT)p        1.0000   1.0000   1.0000   1.0000   1.0000   1.0000   1.0000   1.0000
 Cp, KJ/(KG)(K)   14.5350  14.5370  14.5391  14.5413  14.5436  14.5460  14.5484  14.5509
 GAMMAs            1.3962   1.3961   1.3960   1.3960   1.3959   1.3958   1.3957   1.3956
 SON VEL,M/SEC     1827.6   1835.4   1843.1   1850.9   1858.6   1866.3   1873.9   1881.5

 TRANSPORT PROPERTIES (GASES ONLY)
   CONDUCTIVITY IN UNITS OF MILLIWATTS/(CM)(K)

 VISC,MILLIPOISE  0.14044  0.14128  0.14211  0.14294  0.14377  0.14460  0.14542  0.14625

  WITH EQUILIBRIUM REACTIONS

 Cp, KJ/(KG)(K)   14.5350  14.5370  14.5391  14.5413  14.5436  14.5460  14.5484  14.5509
 CONDUCTIVITY      2.9625   2.9805   2.9984   3.0163   3.0342   3.0520   3.0698   3.0876
 PRANDTL NUMBER    0.6891   0.6891   0.6891   0.6891   0.6891   0.6892   0.6892   0.6892

  WITH FROZEN REACTIONS

 Cp, KJ/(KG)(K)   14.5350  14.5370  14.5391  14.5413  14.5436  14.5460  14.5484  14.5509
 CONDUCTIVITY      2.9625   2.9805   2.9984   3.0163   3.0342   3.0520   3.0698   3.0876
 PRANDTL NUMBER    0.6891   0.6891   0.6891   0.6891   0.6891   0.6892   0.6892   0.6892

 MOLE FRACTIONS

 *H2              1.00000  1.00000  1.00000  1.00000  1.00000  1.00000  1.00000  1.00000

  * THERMODYNAMIC PROPERTIES FITTED TO 20000.K

 NOTE. WEIGHT FRACTION OF FUEL IN TOTAL FUELS AND OF OXIDANT IN TOTAL OXIDANTS









               THERMODYNAMIC EQUILIBRIUM PROPERTIES AT ASSIGNED

                           TEMPERATURE AND PRESSURE

 CASE =                

             REACTANT                    WT FRACTION      ENERGY      TEMP
                                          (SEE NOTE)     KJ/KG-MOL      K  
             H2                           1.0000000         0.000      0.000

 O/F=    0.00000  %FUEL=100.000000  R,EQ.RATIO= 0.000000  PHI,EQ.RATIO= 0.000000

 THERMODYNAMIC PROPERTIES

 P, BAR           0.12000  0.12000  0.12000  0.12000  0.12000  0.12000  0.13200  0.13200
 T, K              620.00   625.00   630.00   635.00   640.00   645.00   575.00   580.00
 RHO, KG/CU M    4.6927-3 4.6551-3 4.6182-3 4.5818-3 4.5460-3 4.5108-3 5.5659-3 5.5179-3
 H, KJ/KG         4661.62  4734.39  4807.18  4879.98  4952.80  5025.63  4007.20  4079.86
 U, KJ/KG         2104.43  2156.58  2208.75  2260.93  2313.12  2365.33  1635.61  1687.66
 G, KJ/KG        -47521.5 -47942.6 -48364.3 -48786.6 -49209.5 -49632.9 -43532.4 -43946.0
 S, KJ/(KG)(K)    84.1663  84.2832  84.3992  84.5143  84.6285  84.7419  82.6775  82.8033

 M, (1/n)           2.016    2.016    2.016    2.016    2.016    2.016    2.016    2.016
 (dLV/dLP)t      -1.00000 -1.00000 -1.00000 -1.00000 -1.00000 -1.00000 -1.00000 -1.00000
 (dLV/dLT)p        1.0000   1.0000   1.0000   1.0000   1.0000   1.0000   1.0000   1.0000
 Cp, KJ/(KG)(K)   14.5535  14.5562  14.5590  14.5618  14.5648  14.5678  14.5330  14.5350
 GAMMAs            1.3955   1.3954   1.3953   1.3952   1.3951   1.3949   1.3963   1.3962
 SON VEL,M/SEC     1889.1   1896.6   1904.1   1911.6   1919.0   1926.4   1819.7   1827.6

 TRANSPORT PROPERTIES (GASES ONLY)
   CONDUCTIVITY IN UNITS OF MILLIWATTS/(CM)(K)

 VISC,MILLIPOISE  0.14707  0.14789  0.14871  0.14952  0.15034  0.15115  0.13960  0.14044

  WITH EQUILIBRIUM REACTIONS

 Cp, KJ/(KG)(K)   14.5535  14.5562  14.5590  14.5618  14.5648  14.5678  14.5330  14.5350
 CONDUCTIVITY      3.1054   3.1232   3.1410   3.1587   3.1764   3.1942   2.9442   2.9625
 PRANDTL NUMBER    0.6892   0.6893   0.6893   0.6893   0.6893   0.6894   0.6891   0.6891

  WITH FROZEN REACTIONS

 Cp, KJ/(KG)(K)   14.5535  14.5562  14.5590  14.5618  14.5648  14.5678  14.5330  14.5350
 CONDUCTIVITY      3.1054   3.1232   3.1410   3.1587   3.1764   3.1942   2.9442   2.9625
 PRANDTL NUMBER    0.6892   0.6893   0.6893   0.6893   0.6893   0.6894   0.6891   0.6891

 MOLE FRACTIONS

 *H2              1.00000  1.00000  1.00000  1.00000  1.00000  1.00000  1.00000  1.00000

  * THERMODYNAMIC PROPERTIES FITTED TO 20000.K

 NOTE. WEIGHT FRACTION OF FUEL IN TOTAL FUELS AND OF OXIDANT IN TOTAL OXIDANTS









               THERMODYNAMIC EQUILIBRIUM PROPERTIES AT ASSIGNED

                           TEMPERATURE AND PRESSURE

 CASE =                

             REACTANT                    WT FRACTION      ENERGY      TEMP
                                          (SEE NOTE)     KJ/KG-MOL      K  
             H2                           1.0000000         0.000      0.000

 O/F=    0.00000  %FUEL=100.000000  R,EQ.RATIO= 0.000000  PHI,EQ.RATIO= 0.000000

 THERMODYNAMIC PROPERTIES

 P, BAR           0.13200  0.13200  0.13200  0.13200  0.13200  0.13200  0.13200  0.13200
 T, K              585.00   590.00   595.00   600.00   605.00   610.00   615.00   620.00
 RHO, KG/CU M    5.4708-3 5.4244-3 5.3788-3 5.3340-3 5.2899-3 5.2466-3 5.2039-3 5.1619-3
 H, KJ/KG         4152.54  4225.23  4297.93  4370.65  4443.37  4516.11  4588.85  4661.62
 U, KJ/KG         1739.72  1791.78  1843.86  1895.95  1948.05  2000.17  2052.29  2104.43
 G, KJ/KG        -44360.4 -44775.3 -45190.9 -45607.0 -46023.8 -46441.2 -46859.2 -47277.8
 S, KJ/(KG)(K)    82.9280  83.0518  83.1745  83.2961  83.4169  83.5366  83.6554  83.7732

 M, (1/n)           2.016    2.016    2.016    2.016    2.016    2.016    2.016    2.016
 (dLV/dLP)t      -1.00000 -1.00000 -1.00000 -1.00000 -1.00000 -1.00000 -1.00000 -1.00000
 (dLV/dLT)p        1.0000   1.0000   1.0000   1.0000   1.0000   1.0000   1.0000   1.0000
 Cp, KJ/(KG)(K)   14.5370  14.5391  14.5413  14.5436  14.5460  14.5484  14.5509  14.5535
 GAMMAs            1.3961   1.3960   1.3960   1.3959   1.3958   1.3957   1.3956   1.3955
 SON VEL,M/SEC     1835.4   1843.1   1850.9   1858.6   1866.3   1873.9   1881.5   1889.1

 TRANSPORT PROPERTIES (GASES ONLY)
   CONDUCTIVITY IN UNITS OF MILLIWATTS/(CM)(K)

 VISC,MILLIPOISE  0.14128  0.14211  0.14294  0.14377  0.14460  0.14542  0.14625  0.14707

  WITH EQUILIBRIUM REACTIONS

 Cp, KJ/(KG)(K)   14.5370  14.5391  14.5413  14.5436  14.5460  14.5484  14.5509  14.5535
 CONDUCTIVITY      2.9805   2.9984   3.0163   3.0342   3.0520   3.0698   3.0876   3.1054
 PRANDTL NUMBER    0.6891   0.6891   0.6891   0.6891   0.6892   0.6892   0.6892   0.6892

  WITH FROZEN REACTIONS

 Cp, KJ/(KG)(K)   14.5370  14.5391  14.5413  14.5436  14.5460  14.5484  14.5509  14.5535
 CONDUCTIVITY      2.9805   2.9984   3.0163   3.0342   3.0520   3.0698   3.0876   3.1054
 PRANDTL NUMBER    0.6891   0.6891   0.6891   0.6891   0.6892   0.6892   0.6892   0.6892

 MOLE FRACTIONS

 *H2              1.00000  1.00000  1.00000  1.00000  1.00000  1.00000  1.00000  1.00000

  * THERMODYNAMIC PROPERTIES FITTED TO 20000.K

 NOTE. WEIGHT FRACTION OF FUEL IN TOTAL FUELS AND OF OXIDANT IN TOTAL OXIDANTS









               THERMODYNAMIC EQUILIBRIUM PROPERTIES AT ASSIGNED

                           TEMPERATURE AND PRESSURE

 CASE =                

             REACTANT                    WT FRACTION      ENERGY      TEMP
                                          (SEE NOTE)     KJ/KG-MOL      K  
             H2                           1.0000000         0.000      0.000

 O/F=    0.00000  %FUEL=100.000000  R,EQ.RATIO= 0.000000  PHI,EQ.RATIO= 0.000000

 THERMODYNAMIC PROPERTIES

 P, BAR           0.13200  0.13200  0.13200  0.13200  0.13200  0.14800  0.14800  0.14800
 T, K              625.00   630.00   635.00   640.00   645.00   575.00   580.00   585.00
 RHO, KG/CU M    5.1206-3 5.0800-3 5.0400-3 5.0006-3 4.9619-3 6.2406-3 6.1868-3 6.1339-3
 H, KJ/KG         4734.39  4807.18  4879.98  4952.80  5025.63  4007.20  4079.86  4152.54
 U, KJ/KG         2156.58  2208.75  2260.93  2313.12  2365.33  1635.61  1687.66  1739.72
 G, KJ/KG        -47696.9 -48116.7 -48537.0 -48957.9 -49379.3 -43261.0 -43672.3 -44084.3
 S, KJ/(KG)(K)    83.8901  84.0061  84.1212  84.2354  84.3488  82.2056  82.3314  82.4561

 M, (1/n)           2.016    2.016    2.016    2.016    2.016    2.016    2.016    2.016
 (dLV/dLP)t      -1.00000 -1.00000 -1.00000 -1.00000 -1.00000 -1.00000 -1.00000 -1.00000
 (dLV/dLT)p        1.0000   1.0000   1.0000   1.0000   1.0000   1.0000   1.0000   1.0000
 Cp, KJ/(KG)(K)   14.5562  14.5590  14.5618  14.5648  14.5678  14.5330  14.5350  14.5370
 GAMMAs            1.3954   1.3953   1.3952   1.3951   1.3949   1.3963   1.3962   1.3961
 SON VEL,M/SEC     1896.6   1904.1   1911.6   1919.0   1926.4   1819.7   1827.6   1835.4

 TRANSPORT PROPERTIES (GASES ONLY)
   CONDUCTIVITY IN UNITS OF MILLIWATTS/(CM)(K)

 VISC,MILLIPOISE  0.14789  0.14871  0.14952  0.15034  0.15115  0.13960  0.14044  0.14128

  WITH EQUILIBRIUM REACTIONS

 Cp, KJ/(KG)(K)   14.5562  14.5590  14.5618  14.5648  14.5678  14.5330  14.5350  14.5370
 CONDUCTIVITY      3.1232   3.1410   3.1587   3.1764   3.1942   2.9442   2.9625   2.9805
 PRANDTL NUMBER    0.6893   0.6893   0.6893   0.6893   0.6894   0.6891   0.6891   0.6891

  WITH FROZEN REACTIONS

 Cp, KJ/(KG)(K)   14.5562  14.5590  14.5618  14.5648  14.5678  14.5330  14.5350  14.5370
 CONDUCTIVITY      3.1232   3.1410   3.1587   3.1764   3.1942   2.9442   2.9625   2.9805
 PRANDTL NUMBER    0.6893   0.6893   0.6893   0.6893   0.6894   0.6891   0.6891   0.6891

 MOLE FRACTIONS

 *H2              1.00000  1.00000  1.00000  1.00000  1.00000  1.00000  1.00000  1.00000

  * THERMODYNAMIC PROPERTIES FITTED TO 20000.K

 NOTE. WEIGHT FRACTION OF FUEL IN TOTAL FUELS AND OF OXIDANT IN TOTAL OXIDANTS









               THERMODYNAMIC EQUILIBRIUM PROPERTIES AT ASSIGNED

                           TEMPERATURE AND PRESSURE

 CASE =                

             REACTANT                    WT FRACTION      ENERGY      TEMP
                                          (SEE NOTE)     KJ/KG-MOL      K  
             H2                           1.0000000         0.000      0.000

 O/F=    0.00000  %FUEL=100.000000  R,EQ.RATIO= 0.000000  PHI,EQ.RATIO= 0.000000

 THERMODYNAMIC PROPERTIES

 P, BAR           0.14800  0.14800  0.14800  0.14800  0.14800  0.14800  0.14800  0.14800
 T, K              590.00   595.00   600.00   605.00   610.00   615.00   620.00   625.00
 RHO, KG/CU M    6.0819-3 6.0308-3 5.9805-3 5.9311-3 5.8825-3 5.8347-3 5.7876-3 5.7413-3
 H, KJ/KG         4225.23  4297.93  4370.65  4443.37  4516.11  4588.85  4661.62  4734.39
 U, KJ/KG         1791.78  1843.86  1895.95  1948.05  2000.17  2052.29  2104.43  2156.58
 G, KJ/KG        -44496.9 -44910.1 -45323.9 -45738.3 -46153.4 -46569.0 -46985.2 -47402.0
 S, KJ/(KG)(K)    82.5799  82.7026  82.8243  82.9450  83.0647  83.1835  83.3013  83.4182

 M, (1/n)           2.016    2.016    2.016    2.016    2.016    2.016    2.016    2.016
 (dLV/dLP)t      -1.00000 -1.00000 -1.00000 -1.00000 -1.00000 -1.00000 -1.00000 -1.00000
 (dLV/dLT)p        1.0000   1.0000   1.0000   1.0000   1.0000   1.0000   1.0000   1.0000
 Cp, KJ/(KG)(K)   14.5391  14.5413  14.5436  14.5460  14.5484  14.5509  14.5535  14.5562
 GAMMAs            1.3960   1.3960   1.3959   1.3958   1.3957   1.3956   1.3955   1.3954
 SON VEL,M/SEC     1843.1   1850.9   1858.6   1866.3   1873.9   1881.5   1889.1   1896.6

 TRANSPORT PROPERTIES (GASES ONLY)
   CONDUCTIVITY IN UNITS OF MILLIWATTS/(CM)(K)

 VISC,MILLIPOISE  0.14211  0.14294  0.14377  0.14460  0.14542  0.14625  0.14707  0.14789

  WITH EQUILIBRIUM REACTIONS

 Cp, KJ/(KG)(K)   14.5391  14.5413  14.5436  14.5460  14.5484  14.5509  14.5535  14.5562
 CONDUCTIVITY      2.9984   3.0163   3.0342   3.0520   3.0698   3.0876   3.1054   3.1232
 PRANDTL NUMBER    0.6891   0.6891   0.6891   0.6892   0.6892   0.6892   0.6892   0.6893

  WITH FROZEN REACTIONS

 Cp, KJ/(KG)(K)   14.5391  14.5413  14.5436  14.5460  14.5484  14.5509  14.5535  14.5562
 CONDUCTIVITY      2.9984   3.0163   3.0342   3.0520   3.0698   3.0876   3.1054   3.1232
 PRANDTL NUMBER    0.6891   0.6891   0.6891   0.6892   0.6892   0.6892   0.6892   0.6893

 MOLE FRACTIONS

 *H2              1.00000  1.00000  1.00000  1.00000  1.00000  1.00000  1.00000  1.00000

  * THERMODYNAMIC PROPERTIES FITTED TO 20000.K

 NOTE. WEIGHT FRACTION OF FUEL IN TOTAL FUELS AND OF OXIDANT IN TOTAL OXIDANTS









               THERMODYNAMIC EQUILIBRIUM PROPERTIES AT ASSIGNED

                           TEMPERATURE AND PRESSURE

 CASE =                

             REACTANT                    WT FRACTION      ENERGY      TEMP
                                          (SEE NOTE)     KJ/KG-MOL      K  
             H2                           1.0000000         0.000      0.000

 O/F=    0.00000  %FUEL=100.000000  R,EQ.RATIO= 0.000000  PHI,EQ.RATIO= 0.000000

 THERMODYNAMIC PROPERTIES

 P, BAR           0.14800  0.14800  0.14800  0.14800  0.16500  0.16500  0.16500  0.16500
 T, K              630.00   635.00   640.00   645.00   575.00   580.00   585.00   590.00
 RHO, KG/CU M    5.6958-3 5.6509-3 5.6068-3 5.5633-3 6.9574-3 6.8974-3 6.8385-3 6.7805-3
 H, KJ/KG         4807.18  4879.98  4952.80  5025.63  4007.20  4079.86  4152.54  4225.23
 U, KJ/KG         2208.75  2260.93  2313.12  2365.33  1635.61  1687.66  1739.72  1791.78
 G, KJ/KG        -47819.4 -48237.3 -48655.9 -49075.0 -43003.2 -43412.2 -43821.9 -44232.3
 S, KJ/(KG)(K)    83.5342  83.6493  83.7635  83.8769  81.7571  81.8829  82.0077  82.1314

 M, (1/n)           2.016    2.016    2.016    2.016    2.016    2.016    2.016    2.016
 (dLV/dLP)t      -1.00000 -1.00000 -1.00000 -1.00000 -1.00000 -1.00000 -1.00000 -1.00000
 (dLV/dLT)p        1.0000   1.0000   1.0000   1.0000   1.0000   1.0000   1.0000   1.0000
 Cp, KJ/(KG)(K)   14.5590  14.5618  14.5648  14.5678  14.5330  14.5350  14.5370  14.5391
 GAMMAs            1.3953   1.3952   1.3951   1.3949   1.3963   1.3962   1.3961   1.3960
 SON VEL,M/SEC     1904.1   1911.6   1919.0   1926.4   1819.7   1827.6   1835.4   1843.1

 TRANSPORT PROPERTIES (GASES ONLY)
   CONDUCTIVITY IN UNITS OF MILLIWATTS/(CM)(K)

 VISC,MILLIPOISE  0.14871  0.14952  0.15034  0.15115  0.13960  0.14044  0.14128  0.14211

  WITH EQUILIBRIUM REACTIONS

 Cp, KJ/(KG)(K)   14.5590  14.5618  14.5648  14.5678  14.5330  14.5350  14.5370  14.5391
 CONDUCTIVITY      3.1410   3.1587   3.1764   3.1942   2.9442   2.9625   2.9805   2.9984
 PRANDTL NUMBER    0.6893   0.6893   0.6893   0.6894   0.6891   0.6891   0.6891   0.6891

  WITH FROZEN REACTIONS

 Cp, KJ/(KG)(K)   14.5590  14.5618  14.5648  14.5678  14.5330  14.5350  14.5370  14.5391
 CONDUCTIVITY      3.1410   3.1587   3.1764   3.1942   2.9442   2.9625   2.9805   2.9984
 PRANDTL NUMBER    0.6893   0.6893   0.6893   0.6894   0.6891   0.6891   0.6891   0.6891

 MOLE FRACTIONS

 *H2              1.00000  1.00000  1.00000  1.00000  1.00000  1.00000  1.00000  1.00000

  * THERMODYNAMIC PROPERTIES FITTED TO 20000.K

 NOTE. WEIGHT FRACTION OF FUEL IN TOTAL FUELS AND OF OXIDANT IN TOTAL OXIDANTS









               THERMODYNAMIC EQUILIBRIUM PROPERTIES AT ASSIGNED

                           TEMPERATURE AND PRESSURE

 CASE =                

             REACTANT                    WT FRACTION      ENERGY      TEMP
                                          (SEE NOTE)     KJ/KG-MOL      K  
             H2                           1.0000000         0.000      0.000

 O/F=    0.00000  %FUEL=100.000000  R,EQ.RATIO= 0.000000  PHI,EQ.RATIO= 0.000000

 THERMODYNAMIC PROPERTIES

 P, BAR           0.16500  0.16500  0.16500  0.16500  0.16500  0.16500  0.16500  0.16500
 T, K              595.00   600.00   605.00   610.00   615.00   620.00   625.00   630.00
 RHO, KG/CU M    6.7235-3 6.6675-3 6.6124-3 6.5582-3 6.5049-3 6.4524-3 6.4008-3 6.3500-3
 H, KJ/KG         4297.93  4370.65  4443.37  4516.11  4588.85  4661.62  4734.39  4807.18
 U, KJ/KG         1843.86  1895.95  1948.05  2000.17  2052.29  2104.43  2156.58  2208.75
 G, KJ/KG        -44643.3 -45054.8 -45467.0 -45879.8 -46293.2 -46707.1 -47121.7 -47536.8
 S, KJ/(KG)(K)    82.2541  82.3758  82.4965  82.6162  82.7350  82.8528  82.9697  83.0857

 M, (1/n)           2.016    2.016    2.016    2.016    2.016    2.016    2.016    2.016
 (dLV/dLP)t      -1.00000 -1.00000 -1.00000 -1.00000 -1.00000 -1.00000 -1.00000 -1.00000
 (dLV/dLT)p        1.0000   1.0000   1.0000   1.0000   1.0000   1.0000   1.0000   1.0000
 Cp, KJ/(KG)(K)   14.5413  14.5436  14.5460  14.5484  14.5509  14.5535  14.5562  14.5590
 GAMMAs            1.3960   1.3959   1.3958   1.3957   1.3956   1.3955   1.3954   1.3953
 SON VEL,M/SEC     1850.9   1858.6   1866.3   1873.9   1881.5   1889.1   1896.6   1904.1

 TRANSPORT PROPERTIES (GASES ONLY)
   CONDUCTIVITY IN UNITS OF MILLIWATTS/(CM)(K)

 VISC,MILLIPOISE  0.14294  0.14377  0.14460  0.14542  0.14625  0.14707  0.14789  0.14871

  WITH EQUILIBRIUM REACTIONS

 Cp, KJ/(KG)(K)   14.5413  14.5436  14.5460  14.5484  14.5509  14.5535  14.5562  14.5590
 CONDUCTIVITY      3.0163   3.0342   3.0520   3.0698   3.0876   3.1054   3.1232   3.1410
 PRANDTL NUMBER    0.6891   0.6891   0.6892   0.6892   0.6892   0.6892   0.6893   0.6893

  WITH FROZEN REACTIONS

 Cp, KJ/(KG)(K)   14.5413  14.5436  14.5460  14.5484  14.5509  14.5535  14.5562  14.5590
 CONDUCTIVITY      3.0163   3.0342   3.0520   3.0698   3.0876   3.1054   3.1232   3.1410
 PRANDTL NUMBER    0.6891   0.6891   0.6892   0.6892   0.6892   0.6892   0.6893   0.6893

 MOLE FRACTIONS

 *H2              1.00000  1.00000  1.00000  1.00000  1.00000  1.00000  1.00000  1.00000

  * THERMODYNAMIC PROPERTIES FITTED TO 20000.K

 NOTE. WEIGHT FRACTION OF FUEL IN TOTAL FUELS AND OF OXIDANT IN TOTAL OXIDANTS









               THERMODYNAMIC EQUILIBRIUM PROPERTIES AT ASSIGNED

                           TEMPERATURE AND PRESSURE

 CASE =                

             REACTANT                    WT FRACTION      ENERGY      TEMP
                                          (SEE NOTE)     KJ/KG-MOL      K  
             H2                           1.0000000         0.000      0.000

 O/F=    0.00000  %FUEL=100.000000  R,EQ.RATIO= 0.000000  PHI,EQ.RATIO= 0.000000

 THERMODYNAMIC PROPERTIES

 P, BAR           0.16500  0.16500  0.16500  0.18000  0.18000  0.18000  0.18000  0.18000
 T, K              635.00   640.00   645.00   575.00   580.00   585.00   590.00   595.00
 RHO, KG/CU M    6.3000-3 6.2508-3 6.2023-3 7.5899-3 7.5244-3 7.4601-3 7.3969-3 7.3348-3
 H, KJ/KG         4879.98  4952.80  5025.63  4007.20  4079.86  4152.54  4225.23  4297.93
 U, KJ/KG         2260.93  2313.12  2365.33  1635.61  1687.66  1739.72  1791.78  1843.86
 G, KJ/KG        -47952.6 -48368.8 -48785.7 -42796.8 -43204.1 -43612.0 -44020.6 -44429.7
 S, KJ/(KG)(K)    83.2008  83.3151  83.4284  81.3983  81.5240  81.6488  81.7725  81.8952

 M, (1/n)           2.016    2.016    2.016    2.016    2.016    2.016    2.016    2.016
 (dLV/dLP)t      -1.00000 -1.00000 -1.00000 -1.00000 -1.00000 -1.00000 -1.00000 -1.00000
 (dLV/dLT)p        1.0000   1.0000   1.0000   1.0000   1.0000   1.0000   1.0000   1.0000
 Cp, KJ/(KG)(K)   14.5618  14.5648  14.5678  14.5330  14.5350  14.5370  14.5391  14.5413
 GAMMAs            1.3952   1.3951   1.3949   1.3963   1.3962   1.3961   1.3960   1.3960
 SON VEL,M/SEC     1911.6   1919.0   1926.4   1819.7   1827.6   1835.4   1843.1   1850.9

 TRANSPORT PROPERTIES (GASES ONLY)
   CONDUCTIVITY IN UNITS OF MILLIWATTS/(CM)(K)

 VISC,MILLIPOISE  0.14952  0.15034  0.15115  0.13960  0.14044  0.14128  0.14211  0.14294

  WITH EQUILIBRIUM REACTIONS

 Cp, KJ/(KG)(K)   14.5618  14.5648  14.5678  14.5330  14.5350  14.5370  14.5391  14.5413
 CONDUCTIVITY      3.1587   3.1764   3.1942   2.9442   2.9625   2.9805   2.9984   3.0163
 PRANDTL NUMBER    0.6893   0.6893   0.6894   0.6891   0.6891   0.6891   0.6891   0.6891

  WITH FROZEN REACTIONS

 Cp, KJ/(KG)(K)   14.5618  14.5648  14.5678  14.5330  14.5350  14.5370  14.5391  14.5413
 CONDUCTIVITY      3.1587   3.1764   3.1942   2.9442   2.9625   2.9805   2.9984   3.0163
 PRANDTL NUMBER    0.6893   0.6893   0.6894   0.6891   0.6891   0.6891   0.6891   0.6891

 MOLE FRACTIONS

 *H2              1.00000  1.00000  1.00000  1.00000  1.00000  1.00000  1.00000  1.00000

  * THERMODYNAMIC PROPERTIES FITTED TO 20000.K

 NOTE. WEIGHT FRACTION OF FUEL IN TOTAL FUELS AND OF OXIDANT IN TOTAL OXIDANTS









               THERMODYNAMIC EQUILIBRIUM PROPERTIES AT ASSIGNED

                           TEMPERATURE AND PRESSURE

 CASE =                

             REACTANT                    WT FRACTION      ENERGY      TEMP
                                          (SEE NOTE)     KJ/KG-MOL      K  
             H2                           1.0000000         0.000      0.000

 O/F=    0.00000  %FUEL=100.000000  R,EQ.RATIO= 0.000000  PHI,EQ.RATIO= 0.000000

 THERMODYNAMIC PROPERTIES

 P, BAR           0.18000  0.18000  0.18000  0.18000  0.18000  0.18000  0.18000  0.18000
 T, K              600.00   605.00   610.00   615.00   620.00   625.00   630.00   635.00
 RHO, KG/CU M    7.2736-3 7.2135-3 7.1544-3 7.0962-3 7.0390-3 6.9827-3 6.9273-3 6.8727-3
 H, KJ/KG         4370.65  4443.37  4516.11  4588.85  4661.62  4734.39  4807.18  4879.98
 U, KJ/KG         1895.95  1948.05  2000.17  2052.29  2104.43  2156.58  2208.75  2260.93
 G, KJ/KG        -44839.5 -45249.9 -45660.9 -46072.5 -46484.6 -46897.4 -47310.7 -47724.7
 S, KJ/(KG)(K)    82.0169  82.1376  82.2573  82.3761  82.4940  82.6109  82.7269  82.8420

 M, (1/n)           2.016    2.016    2.016    2.016    2.016    2.016    2.016    2.016
 (dLV/dLP)t      -1.00000 -1.00000 -1.00000 -1.00000 -1.00000 -1.00000 -1.00000 -1.00000
 (dLV/dLT)p        1.0000   1.0000   1.0000   1.0000   1.0000   1.0000   1.0000   1.0000
 Cp, KJ/(KG)(K)   14.5436  14.5460  14.5484  14.5509  14.5535  14.5562  14.5590  14.5618
 GAMMAs            1.3959   1.3958   1.3957   1.3956   1.3955   1.3954   1.3953   1.3952
 SON VEL,M/SEC     1858.6   1866.3   1873.9   1881.5   1889.1   1896.6   1904.1   1911.6

 TRANSPORT PROPERTIES (GASES ONLY)
   CONDUCTIVITY IN UNITS OF MILLIWATTS/(CM)(K)

 VISC,MILLIPOISE  0.14377  0.14460  0.14542  0.14625  0.14707  0.14789  0.14871  0.14952

  WITH EQUILIBRIUM REACTIONS

 Cp, KJ/(KG)(K)   14.5436  14.5460  14.5484  14.5509  14.5535  14.5562  14.5590  14.5618
 CONDUCTIVITY      3.0342   3.0520   3.0698   3.0876   3.1054   3.1232   3.1410   3.1587
 PRANDTL NUMBER    0.6891   0.6892   0.6892   0.6892   0.6892   0.6893   0.6893   0.6893

  WITH FROZEN REACTIONS

 Cp, KJ/(KG)(K)   14.5436  14.5460  14.5484  14.5509  14.5535  14.5562  14.5590  14.5618
 CONDUCTIVITY      3.0342   3.0520   3.0698   3.0876   3.1054   3.1232   3.1410   3.1587
 PRANDTL NUMBER    0.6891   0.6892   0.6892   0.6892   0.6892   0.6893   0.6893   0.6893

 MOLE FRACTIONS

 *H2              1.00000  1.00000  1.00000  1.00000  1.00000  1.00000  1.00000  1.00000

  * THERMODYNAMIC PROPERTIES FITTED TO 20000.K

 NOTE. WEIGHT FRACTION OF FUEL IN TOTAL FUELS AND OF OXIDANT IN TOTAL OXIDANTS









               THERMODYNAMIC EQUILIBRIUM PROPERTIES AT ASSIGNED

                           TEMPERATURE AND PRESSURE

 CASE =                

             REACTANT                    WT FRACTION      ENERGY      TEMP
                                          (SEE NOTE)     KJ/KG-MOL      K  
             H2                           1.0000000         0.000      0.000

 O/F=    0.00000  %FUEL=100.000000  R,EQ.RATIO= 0.000000  PHI,EQ.RATIO= 0.000000

 THERMODYNAMIC PROPERTIES

 P, BAR           0.18000  0.18000  0.20000  0.20000  0.20000  0.20000  0.20000  0.20000
 T, K              640.00   645.00   575.00   580.00   585.00   590.00   595.00   600.00
 RHO, KG/CU M    6.8190-3 6.7662-3 8.4332-3 8.3605-3 8.2890-3 8.2188-3 8.1497-3 8.0818-3
 H, KJ/KG         4952.80  5025.63  4007.20  4079.86  4152.54  4225.23  4297.93  4370.65
 U, KJ/KG         2313.12  2365.33  1635.61  1687.66  1739.72  1791.78  1843.86  1895.95
 G, KJ/KG        -48139.2 -48554.2 -42546.9 -42952.0 -43357.8 -43764.2 -44171.2 -44578.8
 S, KJ/(KG)(K)    82.9562  83.0695  80.9637  81.0895  81.2142  81.3380  81.4607  81.5824

 M, (1/n)           2.016    2.016    2.016    2.016    2.016    2.016    2.016    2.016
 (dLV/dLP)t      -1.00000 -1.00000 -1.00000 -1.00000 -1.00000 -1.00000 -1.00000 -1.00000
 (dLV/dLT)p        1.0000   1.0000   1.0000   1.0000   1.0000   1.0000   1.0000   1.0000
 Cp, KJ/(KG)(K)   14.5648  14.5678  14.5330  14.5350  14.5370  14.5391  14.5413  14.5436
 GAMMAs            1.3951   1.3949   1.3963   1.3962   1.3961   1.3960   1.3960   1.3959
 SON VEL,M/SEC     1919.0   1926.4   1819.7   1827.6   1835.4   1843.1   1850.9   1858.6

 TRANSPORT PROPERTIES (GASES ONLY)
   CONDUCTIVITY IN UNITS OF MILLIWATTS/(CM)(K)

 VISC,MILLIPOISE  0.15034  0.15115  0.13960  0.14044  0.14128  0.14211  0.14294  0.14377

  WITH EQUILIBRIUM REACTIONS

 Cp, KJ/(KG)(K)   14.5648  14.5678  14.5330  14.5350  14.5370  14.5391  14.5413  14.5436
 CONDUCTIVITY      3.1764   3.1942   2.9442   2.9625   2.9805   2.9984   3.0163   3.0342
 PRANDTL NUMBER    0.6893   0.6894   0.6891   0.6891   0.6891   0.6891   0.6891   0.6891

  WITH FROZEN REACTIONS

 Cp, KJ/(KG)(K)   14.5648  14.5678  14.5330  14.5350  14.5370  14.5391  14.5413  14.5436
 CONDUCTIVITY      3.1764   3.1942   2.9442   2.9625   2.9805   2.9984   3.0163   3.0342
 PRANDTL NUMBER    0.6893   0.6894   0.6891   0.6891   0.6891   0.6891   0.6891   0.6891

 MOLE FRACTIONS

 *H2              1.00000  1.00000  1.00000  1.00000  1.00000  1.00000  1.00000  1.00000

  * THERMODYNAMIC PROPERTIES FITTED TO 20000.K

 NOTE. WEIGHT FRACTION OF FUEL IN TOTAL FUELS AND OF OXIDANT IN TOTAL OXIDANTS









               THERMODYNAMIC EQUILIBRIUM PROPERTIES AT ASSIGNED

                           TEMPERATURE AND PRESSURE

 CASE =                

             REACTANT                    WT FRACTION      ENERGY      TEMP
                                          (SEE NOTE)     KJ/KG-MOL      K  
             H2                           1.0000000         0.000      0.000

 O/F=    0.00000  %FUEL=100.000000  R,EQ.RATIO= 0.000000  PHI,EQ.RATIO= 0.000000

 THERMODYNAMIC PROPERTIES

 P, BAR           0.20000  0.20000  0.20000  0.20000  0.20000  0.20000  0.20000  0.20000
 T, K              605.00   610.00   615.00   620.00   625.00   630.00   635.00   640.00
 RHO, KG/CU M    8.0150-3 7.9493-3 7.8847-3 7.8211-3 7.7585-3 7.6970-3 7.6364-3 7.5767-3
 H, KJ/KG         4443.37  4516.11  4588.85  4661.62  4734.39  4807.18  4879.98  4952.80
 U, KJ/KG         1948.05  2000.17  2052.29  2104.43  2156.58  2208.75  2260.93  2313.12
 G, KJ/KG        -44987.0 -45395.8 -45805.2 -46215.2 -46625.8 -47037.0 -47448.7 -47861.0
 S, KJ/(KG)(K)    81.7031  81.8228  81.9416  82.0594  82.1763  82.2923  82.4074  82.5216

 M, (1/n)           2.016    2.016    2.016    2.016    2.016    2.016    2.016    2.016
 (dLV/dLP)t      -1.00000 -1.00000 -1.00000 -1.00000 -1.00000 -1.00000 -1.00000 -1.00000
 (dLV/dLT)p        1.0000   1.0000   1.0000   1.0000   1.0000   1.0000   1.0000   1.0000
 Cp, KJ/(KG)(K)   14.5460  14.5484  14.5509  14.5535  14.5562  14.5590  14.5618  14.5648
 GAMMAs            1.3958   1.3957   1.3956   1.3955   1.3954   1.3953   1.3952   1.3951
 SON VEL,M/SEC     1866.3   1873.9   1881.5   1889.1   1896.6   1904.1   1911.6   1919.0

 TRANSPORT PROPERTIES (GASES ONLY)
   CONDUCTIVITY IN UNITS OF MILLIWATTS/(CM)(K)

 VISC,MILLIPOISE  0.14460  0.14542  0.14625  0.14707  0.14789  0.14871  0.14952  0.15034

  WITH EQUILIBRIUM REACTIONS

 Cp, KJ/(KG)(K)   14.5460  14.5484  14.5509  14.5535  14.5562  14.5590  14.5618  14.5648
 CONDUCTIVITY      3.0520   3.0698   3.0876   3.1054   3.1232   3.1410   3.1587   3.1764
 PRANDTL NUMBER    0.6892   0.6892   0.6892   0.6892   0.6893   0.6893   0.6893   0.6893

  WITH FROZEN REACTIONS

 Cp, KJ/(KG)(K)   14.5460  14.5484  14.5509  14.5535  14.5562  14.5590  14.5618  14.5648
 CONDUCTIVITY      3.0520   3.0698   3.0876   3.1054   3.1232   3.1410   3.1587   3.1764
 PRANDTL NUMBER    0.6892   0.6892   0.6892   0.6892   0.6893   0.6893   0.6893   0.6893

 MOLE FRACTIONS

 *H2              1.00000  1.00000  1.00000  1.00000  1.00000  1.00000  1.00000  1.00000

  * THERMODYNAMIC PROPERTIES FITTED TO 20000.K

 NOTE. WEIGHT FRACTION OF FUEL IN TOTAL FUELS AND OF OXIDANT IN TOTAL OXIDANTS









               THERMODYNAMIC EQUILIBRIUM PROPERTIES AT ASSIGNED

                           TEMPERATURE AND PRESSURE

 CASE =                

             REACTANT                    WT FRACTION      ENERGY      TEMP
                                          (SEE NOTE)     KJ/KG-MOL      K  
             H2                           1.0000000         0.000      0.000

 O/F=    0.00000  %FUEL=100.000000  R,EQ.RATIO= 0.000000  PHI,EQ.RATIO= 0.000000

 THERMODYNAMIC PROPERTIES

 P, BAR           0.20000  0.22500  0.22500  0.22500  0.22500  0.22500  0.22500  0.22500
 T, K              645.00   575.00   580.00   585.00   590.00   595.00   600.00   605.00
 RHO, KG/CU M    7.5180-3 9.4873-3 9.4055-3 9.3252-3 9.2461-3 9.1684-3 9.0920-3 9.0169-3
 H, KJ/KG         5025.63  4007.20  4079.86  4152.54  4225.23  4297.93  4370.65  4443.37
 U, KJ/KG         2365.33  1635.61  1687.66  1739.72  1791.78  1843.86  1895.95  1948.05
 G, KJ/KG        -48273.9 -42267.6 -42670.3 -43073.6 -43477.5 -43882.1 -44287.3 -44693.1
 S, KJ/(KG)(K)    82.6350  80.4779  80.6037  80.7284  80.8522  80.9749  81.0966  81.2173

 M, (1/n)           2.016    2.016    2.016    2.016    2.016    2.016    2.016    2.016
 (dLV/dLP)t      -1.00000 -1.00000 -1.00000 -1.00000 -1.00000 -1.00000 -1.00000 -1.00000
 (dLV/dLT)p        1.0000   1.0000   1.0000   1.0000   1.0000   1.0000   1.0000   1.0000
 Cp, KJ/(KG)(K)   14.5678  14.5330  14.5350  14.5370  14.5391  14.5413  14.5436  14.5460
 GAMMAs            1.3949   1.3963   1.3962   1.3961   1.3960   1.3960   1.3959   1.3958
 SON VEL,M/SEC     1926.4   1819.7   1827.6   1835.4   1843.1   1850.9   1858.6   1866.3

 TRANSPORT PROPERTIES (GASES ONLY)
   CONDUCTIVITY IN UNITS OF MILLIWATTS/(CM)(K)

 VISC,MILLIPOISE  0.15115  0.13960  0.14044  0.14128  0.14211  0.14294  0.14377  0.14460

  WITH EQUILIBRIUM REACTIONS

 Cp, KJ/(KG)(K)   14.5678  14.5330  14.5350  14.5370  14.5391  14.5413  14.5436  14.5460
 CONDUCTIVITY      3.1942   2.9442   2.9625   2.9805   2.9984   3.0163   3.0342   3.0520
 PRANDTL NUMBER    0.6894   0.6891   0.6891   0.6891   0.6891   0.6891   0.6891   0.6892

  WITH FROZEN REACTIONS

 Cp, KJ/(KG)(K)   14.5678  14.5330  14.5350  14.5370  14.5391  14.5413  14.5436  14.5460
 CONDUCTIVITY      3.1942   2.9442   2.9625   2.9805   2.9984   3.0163   3.0342   3.0520
 PRANDTL NUMBER    0.6894   0.6891   0.6891   0.6891   0.6891   0.6891   0.6891   0.6892

 MOLE FRACTIONS

 *H2              1.00000  1.00000  1.00000  1.00000  1.00000  1.00000  1.00000  1.00000

  * THERMODYNAMIC PROPERTIES FITTED TO 20000.K

 NOTE. WEIGHT FRACTION OF FUEL IN TOTAL FUELS AND OF OXIDANT IN TOTAL OXIDANTS









               THERMODYNAMIC EQUILIBRIUM PROPERTIES AT ASSIGNED

                           TEMPERATURE AND PRESSURE

 CASE =                

             REACTANT                    WT FRACTION      ENERGY      TEMP
                                          (SEE NOTE)     KJ/KG-MOL      K  
             H2                           1.0000000         0.000      0.000

 O/F=    0.00000  %FUEL=100.000000  R,EQ.RATIO= 0.000000  PHI,EQ.RATIO= 0.000000

 THERMODYNAMIC PROPERTIES

 P, BAR           0.22500  0.22500  0.22500  0.22500  0.22500  0.22500  0.22500  0.22500
 T, K              610.00   615.00   620.00   625.00   630.00   635.00   640.00   645.00
 RHO, KG/CU M    8.9430-3 8.8703-3 8.7987-3 8.7284-3 8.6591-3 8.5909-3 8.5238-3 8.4577-3
 H, KJ/KG         4516.11  4588.85  4661.62  4734.39  4807.18  4879.98  4952.80  5025.63
 U, KJ/KG         2000.17  2052.29  2104.43  2156.58  2208.75  2260.93  2313.12  2365.33
 G, KJ/KG        -45099.5 -45506.4 -45914.0 -46322.2 -46730.9 -47140.2 -47550.1 -47960.6
 S, KJ/(KG)(K)    81.3370  81.4558  81.5736  81.6905  81.8065  81.9216  82.0358  82.1492

 M, (1/n)           2.016    2.016    2.016    2.016    2.016    2.016    2.016    2.016
 (dLV/dLP)t      -1.00000 -1.00000 -1.00000 -1.00000 -1.00000 -1.00000 -1.00000 -1.00000
 (dLV/dLT)p        1.0000   1.0000   1.0000   1.0000   1.0000   1.0000   1.0000   1.0000
 Cp, KJ/(KG)(K)   14.5484  14.5509  14.5535  14.5562  14.5590  14.5618  14.5648  14.5678
 GAMMAs            1.3957   1.3956   1.3955   1.3954   1.3953   1.3952   1.3951   1.3949
 SON VEL,M/SEC     1873.9   1881.5   1889.1   1896.6   1904.1   1911.6   1919.0   1926.4

 TRANSPORT PROPERTIES (GASES ONLY)
   CONDUCTIVITY IN UNITS OF MILLIWATTS/(CM)(K)

 VISC,MILLIPOISE  0.14542  0.14625  0.14707  0.14789  0.14871  0.14952  0.15034  0.15115

  WITH EQUILIBRIUM REACTIONS

 Cp, KJ/(KG)(K)   14.5484  14.5509  14.5535  14.5562  14.5590  14.5618  14.5648  14.5678
 CONDUCTIVITY      3.0698   3.0876   3.1054   3.1232   3.1410   3.1587   3.1764   3.1942
 PRANDTL NUMBER    0.6892   0.6892   0.6892   0.6893   0.6893   0.6893   0.6893   0.6894

  WITH FROZEN REACTIONS

 Cp, KJ/(KG)(K)   14.5484  14.5509  14.5535  14.5562  14.5590  14.5618  14.5648  14.5678
 CONDUCTIVITY      3.0698   3.0876   3.1054   3.1232   3.1410   3.1587   3.1764   3.1942
 PRANDTL NUMBER    0.6892   0.6892   0.6892   0.6893   0.6893   0.6893   0.6893   0.6894

 MOLE FRACTIONS

 *H2              1.00000  1.00000  1.00000  1.00000  1.00000  1.00000  1.00000  1.00000

  * THERMODYNAMIC PROPERTIES FITTED TO 20000.K

 NOTE. WEIGHT FRACTION OF FUEL IN TOTAL FUELS AND OF OXIDANT IN TOTAL OXIDANTS









               THERMODYNAMIC EQUILIBRIUM PROPERTIES AT ASSIGNED

                           TEMPERATURE AND PRESSURE

 CASE =                

             REACTANT                    WT FRACTION      ENERGY      TEMP
                                          (SEE NOTE)     KJ/KG-MOL      K  
             H2                           1.0000000         0.000      0.000

 O/F=    0.00000  %FUEL=100.000000  R,EQ.RATIO= 0.000000  PHI,EQ.RATIO= 0.000000

 THERMODYNAMIC PROPERTIES

 P, BAR           0.25000  0.25000  0.25000  0.25000  0.25000  0.25000  0.25000  0.25000
 T, K              575.00   580.00   585.00   590.00   595.00   600.00   605.00   610.00
 RHO, KG/CU M    1.0541-2 1.0451-2 1.0361-2 1.0273-2 1.0187-2 1.0102-2 1.0019-2 9.9366-3
 H, KJ/KG         4007.20  4079.86  4152.54  4225.23  4297.93  4370.65  4443.37  4516.11
 U, KJ/KG         1635.61  1687.66  1739.72  1791.78  1843.86  1895.95  1948.05  2000.17
 G, KJ/KG        -42017.7 -42418.2 -42819.4 -43221.2 -43623.5 -44026.6 -44430.2 -44834.4
 S, KJ/(KG)(K)    80.0433  80.1691  80.2939  80.4176  80.5403  80.6620  80.7827  80.9024

 M, (1/n)           2.016    2.016    2.016    2.016    2.016    2.016    2.016    2.016
 (dLV/dLP)t      -1.00000 -1.00000 -1.00000 -1.00000 -1.00000 -1.00000 -1.00000 -1.00000
 (dLV/dLT)p        1.0000   1.0000   1.0000   1.0000   1.0000   1.0000   1.0000   1.0000
 Cp, KJ/(KG)(K)   14.5330  14.5350  14.5370  14.5391  14.5413  14.5436  14.5460  14.5484
 GAMMAs            1.3963   1.3962   1.3961   1.3960   1.3960   1.3959   1.3958   1.3957
 SON VEL,M/SEC     1819.7   1827.6   1835.4   1843.1   1850.9   1858.6   1866.3   1873.9

 TRANSPORT PROPERTIES (GASES ONLY)
   CONDUCTIVITY IN UNITS OF MILLIWATTS/(CM)(K)

 VISC,MILLIPOISE  0.13960  0.14044  0.14128  0.14211  0.14294  0.14377  0.14460  0.14542

  WITH EQUILIBRIUM REACTIONS

 Cp, KJ/(KG)(K)   14.5330  14.5350  14.5370  14.5391  14.5413  14.5436  14.5460  14.5484
 CONDUCTIVITY      2.9442   2.9625   2.9805   2.9984   3.0163   3.0342   3.0520   3.0698
 PRANDTL NUMBER    0.6891   0.6891   0.6891   0.6891   0.6891   0.6891   0.6892   0.6892

  WITH FROZEN REACTIONS

 Cp, KJ/(KG)(K)   14.5330  14.5350  14.5370  14.5391  14.5413  14.5436  14.5460  14.5484
 CONDUCTIVITY      2.9442   2.9625   2.9805   2.9984   3.0163   3.0342   3.0520   3.0698
 PRANDTL NUMBER    0.6891   0.6891   0.6891   0.6891   0.6891   0.6891   0.6892   0.6892

 MOLE FRACTIONS

 *H2              1.00000  1.00000  1.00000  1.00000  1.00000  1.00000  1.00000  1.00000

  * THERMODYNAMIC PROPERTIES FITTED TO 20000.K

 NOTE. WEIGHT FRACTION OF FUEL IN TOTAL FUELS AND OF OXIDANT IN TOTAL OXIDANTS









               THERMODYNAMIC EQUILIBRIUM PROPERTIES AT ASSIGNED

                           TEMPERATURE AND PRESSURE

 CASE =                

             REACTANT                    WT FRACTION      ENERGY      TEMP
                                          (SEE NOTE)     KJ/KG-MOL      K  
             H2                           1.0000000         0.000      0.000

 O/F=    0.00000  %FUEL=100.000000  R,EQ.RATIO= 0.000000  PHI,EQ.RATIO= 0.000000

 THERMODYNAMIC PROPERTIES

 P, BAR           0.25000  0.25000  0.25000  0.25000  0.25000  0.25000  0.25000  0.28000
 T, K              615.00   620.00   625.00   630.00   635.00   640.00   645.00   575.00
 RHO, KG/CU M    9.8559-3 9.7764-3 9.6982-3 9.6212-3 9.5454-3 9.4709-3 9.3975-3 1.1806-2
 H, KJ/KG         4588.85  4661.62  4734.39  4807.18  4879.98  4952.80  5025.63  4007.20
 U, KJ/KG         2052.29  2104.43  2156.58  2208.75  2260.93  2313.12  2365.33  1635.61
 G, KJ/KG        -45239.2 -45644.6 -46050.6 -46457.1 -46864.3 -47272.0 -47680.3 -41749.0
 S, KJ/(KG)(K)    81.0212  81.1390  81.2559  81.3719  81.4870  81.6013  81.7146  79.5759

 M, (1/n)           2.016    2.016    2.016    2.016    2.016    2.016    2.016    2.016
 (dLV/dLP)t      -1.00000 -1.00000 -1.00000 -1.00000 -1.00000 -1.00000 -1.00000 -1.00000
 (dLV/dLT)p        1.0000   1.0000   1.0000   1.0000   1.0000   1.0000   1.0000   1.0000
 Cp, KJ/(KG)(K)   14.5509  14.5535  14.5562  14.5590  14.5618  14.5648  14.5678  14.5330
 GAMMAs            1.3956   1.3955   1.3954   1.3953   1.3952   1.3951   1.3949   1.3963
 SON VEL,M/SEC     1881.5   1889.1   1896.6   1904.1   1911.6   1919.0   1926.4   1819.7

 TRANSPORT PROPERTIES (GASES ONLY)
   CONDUCTIVITY IN UNITS OF MILLIWATTS/(CM)(K)

 VISC,MILLIPOISE  0.14625  0.14707  0.14789  0.14871  0.14952  0.15034  0.15115  0.13960

  WITH EQUILIBRIUM REACTIONS

 Cp, KJ/(KG)(K)   14.5509  14.5535  14.5562  14.5590  14.5618  14.5648  14.5678  14.5330
 CONDUCTIVITY      3.0876   3.1054   3.1232   3.1410   3.1587   3.1764   3.1942   2.9442
 PRANDTL NUMBER    0.6892   0.6892   0.6893   0.6893   0.6893   0.6893   0.6894   0.6891

  WITH FROZEN REACTIONS

 Cp, KJ/(KG)(K)   14.5509  14.5535  14.5562  14.5590  14.5618  14.5648  14.5678  14.5330
 CONDUCTIVITY      3.0876   3.1054   3.1232   3.1410   3.1587   3.1764   3.1942   2.9442
 PRANDTL NUMBER    0.6892   0.6892   0.6893   0.6893   0.6893   0.6893   0.6894   0.6891

 MOLE FRACTIONS

 *H2              1.00000  1.00000  1.00000  1.00000  1.00000  1.00000  1.00000  1.00000

  * THERMODYNAMIC PROPERTIES FITTED TO 20000.K

 NOTE. WEIGHT FRACTION OF FUEL IN TOTAL FUELS AND OF OXIDANT IN TOTAL OXIDANTS









               THERMODYNAMIC EQUILIBRIUM PROPERTIES AT ASSIGNED

                           TEMPERATURE AND PRESSURE

 CASE =                

             REACTANT                    WT FRACTION      ENERGY      TEMP
                                          (SEE NOTE)     KJ/KG-MOL      K  
             H2                           1.0000000         0.000      0.000

 O/F=    0.00000  %FUEL=100.000000  R,EQ.RATIO= 0.000000  PHI,EQ.RATIO= 0.000000

 THERMODYNAMIC PROPERTIES

 P, BAR           0.28000  0.28000  0.28000  0.28000  0.28000  0.28000  0.28000  0.28000
 T, K              580.00   585.00   590.00   595.00   600.00   605.00   610.00   615.00
 RHO, KG/CU M    1.1705-2 1.1605-2 1.1506-2 1.1410-2 1.1315-2 1.1221-2 1.1129-2 1.1039-2
 H, KJ/KG         4079.86  4152.54  4225.23  4297.93  4370.65  4443.37  4516.11  4588.85
 U, KJ/KG         1687.66  1739.72  1791.78  1843.86  1895.95  1948.05  2000.17  2052.29
 G, KJ/KG        -42147.1 -42545.9 -42945.4 -43345.4 -43746.1 -44147.4 -44549.2 -44951.7
 S, KJ/(KG)(K)    79.7017  79.8265  79.9502  80.0729  80.1946  80.3153  80.4350  80.5538

 M, (1/n)           2.016    2.016    2.016    2.016    2.016    2.016    2.016    2.016
 (dLV/dLP)t      -1.00000 -1.00000 -1.00000 -1.00000 -1.00000 -1.00000 -1.00000 -1.00000
 (dLV/dLT)p        1.0000   1.0000   1.0000   1.0000   1.0000   1.0000   1.0000   1.0000
 Cp, KJ/(KG)(K)   14.5350  14.5370  14.5391  14.5413  14.5436  14.5460  14.5484  14.5509
 GAMMAs            1.3962   1.3961   1.3960   1.3960   1.3959   1.3958   1.3957   1.3956
 SON VEL,M/SEC     1827.6   1835.4   1843.1   1850.9   1858.6   1866.3   1873.9   1881.5

 TRANSPORT PROPERTIES (GASES ONLY)
   CONDUCTIVITY IN UNITS OF MILLIWATTS/(CM)(K)

 VISC,MILLIPOISE  0.14044  0.14128  0.14211  0.14294  0.14377  0.14460  0.14542  0.14625

  WITH EQUILIBRIUM REACTIONS

 Cp, KJ/(KG)(K)   14.5350  14.5370  14.5391  14.5413  14.5436  14.5460  14.5484  14.5509
 CONDUCTIVITY      2.9625   2.9805   2.9984   3.0163   3.0342   3.0520   3.0698   3.0876
 PRANDTL NUMBER    0.6891   0.6891   0.6891   0.6891   0.6891   0.6892   0.6892   0.6892

  WITH FROZEN REACTIONS

 Cp, KJ/(KG)(K)   14.5350  14.5370  14.5391  14.5413  14.5436  14.5460  14.5484  14.5509
 CONDUCTIVITY      2.9625   2.9805   2.9984   3.0163   3.0342   3.0520   3.0698   3.0876
 PRANDTL NUMBER    0.6891   0.6891   0.6891   0.6891   0.6891   0.6892   0.6892   0.6892

 MOLE FRACTIONS

 *H2              1.00000  1.00000  1.00000  1.00000  1.00000  1.00000  1.00000  1.00000

  * THERMODYNAMIC PROPERTIES FITTED TO 20000.K

 NOTE. WEIGHT FRACTION OF FUEL IN TOTAL FUELS AND OF OXIDANT IN TOTAL OXIDANTS









               THERMODYNAMIC EQUILIBRIUM PROPERTIES AT ASSIGNED

                           TEMPERATURE AND PRESSURE

 CASE =                

             REACTANT                    WT FRACTION      ENERGY      TEMP
                                          (SEE NOTE)     KJ/KG-MOL      K  
             H2                           1.0000000         0.000      0.000

 O/F=    0.00000  %FUEL=100.000000  R,EQ.RATIO= 0.000000  PHI,EQ.RATIO= 0.000000

 THERMODYNAMIC PROPERTIES

 P, BAR           0.28000  0.28000  0.28000  0.28000  0.28000  0.28000  0.31000  0.31000
 T, K              620.00   625.00   630.00   635.00   640.00   645.00   575.00   580.00
 RHO, KG/CU M    1.0950-2 1.0862-2 1.0776-2 1.0691-2 1.0607-2 1.0525-2 1.3071-2 1.2959-2
 H, KJ/KG         4661.62  4734.39  4807.18  4879.98  4952.80  5025.63  4007.20  4079.86
 U, KJ/KG         2104.43  2156.58  2208.75  2260.93  2313.12  2365.33  1635.61  1687.66
 G, KJ/KG        -45354.8 -45758.4 -46162.7 -46567.5 -46972.9 -47378.8 -41507.6 -41903.6
 S, KJ/(KG)(K)    80.6716  80.7885  80.9045  81.0196  81.1338  81.2472  79.1561  79.2819

 M, (1/n)           2.016    2.016    2.016    2.016    2.016    2.016    2.016    2.016
 (dLV/dLP)t      -1.00000 -1.00000 -1.00000 -1.00000 -1.00000 -1.00000 -1.00000 -1.00000
 (dLV/dLT)p        1.0000   1.0000   1.0000   1.0000   1.0000   1.0000   1.0000   1.0000
 Cp, KJ/(KG)(K)   14.5535  14.5562  14.5590  14.5618  14.5648  14.5678  14.5330  14.5350
 GAMMAs            1.3955   1.3954   1.3953   1.3952   1.3951   1.3949   1.3963   1.3962
 SON VEL,M/SEC     1889.1   1896.6   1904.1   1911.6   1919.0   1926.4   1819.7   1827.6

 TRANSPORT PROPERTIES (GASES ONLY)
   CONDUCTIVITY IN UNITS OF MILLIWATTS/(CM)(K)

 VISC,MILLIPOISE  0.14707  0.14789  0.14871  0.14952  0.15034  0.15115  0.13960  0.14044

  WITH EQUILIBRIUM REACTIONS

 Cp, KJ/(KG)(K)   14.5535  14.5562  14.5590  14.5618  14.5648  14.5678  14.5330  14.5350
 CONDUCTIVITY      3.1054   3.1232   3.1410   3.1587   3.1764   3.1942   2.9442   2.9625
 PRANDTL NUMBER    0.6892   0.6893   0.6893   0.6893   0.6893   0.6894   0.6891   0.6891

  WITH FROZEN REACTIONS

 Cp, KJ/(KG)(K)   14.5535  14.5562  14.5590  14.5618  14.5648  14.5678  14.5330  14.5350
 CONDUCTIVITY      3.1054   3.1232   3.1410   3.1587   3.1764   3.1942   2.9442   2.9625
 PRANDTL NUMBER    0.6892   0.6893   0.6893   0.6893   0.6893   0.6894   0.6891   0.6891

 MOLE FRACTIONS

 *H2              1.00000  1.00000  1.00000  1.00000  1.00000  1.00000  1.00000  1.00000

  * THERMODYNAMIC PROPERTIES FITTED TO 20000.K

 NOTE. WEIGHT FRACTION OF FUEL IN TOTAL FUELS AND OF OXIDANT IN TOTAL OXIDANTS









               THERMODYNAMIC EQUILIBRIUM PROPERTIES AT ASSIGNED

                           TEMPERATURE AND PRESSURE

 CASE =                

             REACTANT                    WT FRACTION      ENERGY      TEMP
                                          (SEE NOTE)     KJ/KG-MOL      K  
             H2                           1.0000000         0.000      0.000

 O/F=    0.00000  %FUEL=100.000000  R,EQ.RATIO= 0.000000  PHI,EQ.RATIO= 0.000000

 THERMODYNAMIC PROPERTIES

 P, BAR           0.31000  0.31000  0.31000  0.31000  0.31000  0.31000  0.31000  0.31000
 T, K              585.00   590.00   595.00   600.00   605.00   610.00   615.00   620.00
 RHO, KG/CU M    1.2848-2 1.2739-2 1.2632-2 1.2527-2 1.2423-2 1.2321-2 1.2221-2 1.2123-2
 H, KJ/KG         4152.54  4225.23  4297.93  4370.65  4443.37  4516.11  4588.85  4661.62
 U, KJ/KG         1739.72  1791.78  1843.86  1895.95  1948.05  2000.17  2052.29  2104.43
 G, KJ/KG        -42300.3 -42697.7 -43095.6 -43494.2 -43893.4 -44293.2 -44693.5 -45094.5
 S, KJ/(KG)(K)    79.4067  79.5304  79.6531  79.7748  79.8955  80.0152  80.1340  80.2518

 M, (1/n)           2.016    2.016    2.016    2.016    2.016    2.016    2.016    2.016
 (dLV/dLP)t      -1.00000 -1.00000 -1.00000 -1.00000 -1.00000 -1.00000 -1.00000 -1.00000
 (dLV/dLT)p        1.0000   1.0000   1.0000   1.0000   1.0000   1.0000   1.0000   1.0000
 Cp, KJ/(KG)(K)   14.5370  14.5391  14.5413  14.5436  14.5460  14.5484  14.5509  14.5535
 GAMMAs            1.3961   1.3960   1.3960   1.3959   1.3958   1.3957   1.3956   1.3955
 SON VEL,M/SEC     1835.4   1843.1   1850.9   1858.6   1866.3   1873.9   1881.5   1889.1

 TRANSPORT PROPERTIES (GASES ONLY)
   CONDUCTIVITY IN UNITS OF MILLIWATTS/(CM)(K)

 VISC,MILLIPOISE  0.14128  0.14211  0.14294  0.14377  0.14460  0.14542  0.14625  0.14707

  WITH EQUILIBRIUM REACTIONS

 Cp, KJ/(KG)(K)   14.5370  14.5391  14.5413  14.5436  14.5460  14.5484  14.5509  14.5535
 CONDUCTIVITY      2.9805   2.9984   3.0163   3.0342   3.0520   3.0698   3.0876   3.1054
 PRANDTL NUMBER    0.6891   0.6891   0.6891   0.6891   0.6892   0.6892   0.6892   0.6892

  WITH FROZEN REACTIONS

 Cp, KJ/(KG)(K)   14.5370  14.5391  14.5413  14.5436  14.5460  14.5484  14.5509  14.5535
 CONDUCTIVITY      2.9805   2.9984   3.0163   3.0342   3.0520   3.0698   3.0876   3.1054
 PRANDTL NUMBER    0.6891   0.6891   0.6891   0.6891   0.6892   0.6892   0.6892   0.6892

 MOLE FRACTIONS

 *H2              1.00000  1.00000  1.00000  1.00000  1.00000  1.00000  1.00000  1.00000

  * THERMODYNAMIC PROPERTIES FITTED TO 20000.K

 NOTE. WEIGHT FRACTION OF FUEL IN TOTAL FUELS AND OF OXIDANT IN TOTAL OXIDANTS









               THERMODYNAMIC EQUILIBRIUM PROPERTIES AT ASSIGNED

                           TEMPERATURE AND PRESSURE

 CASE =                

             REACTANT                    WT FRACTION      ENERGY      TEMP
                                          (SEE NOTE)     KJ/KG-MOL      K  
             H2                           1.0000000         0.000      0.000

 O/F=    0.00000  %FUEL=100.000000  R,EQ.RATIO= 0.000000  PHI,EQ.RATIO= 0.000000

 THERMODYNAMIC PROPERTIES

 P, BAR           0.31000  0.31000  0.31000  0.31000  0.31000  0.35000  0.35000  0.35000
 T, K              625.00   630.00   635.00   640.00   645.00   575.00   580.00   585.00
 RHO, KG/CU M    1.2026-2 1.1930-2 1.1836-2 1.1744-2 1.1653-2 1.4758-2 1.4631-2 1.4506-2
 H, KJ/KG         4734.39  4807.18  4879.98  4952.80  5025.63  4007.20  4079.86  4152.54
 U, KJ/KG         2156.58  2208.75  2260.93  2313.12  2365.33  1635.61  1687.66  1739.72
 G, KJ/KG        -45496.1 -45898.2 -46300.9 -46704.2 -47108.0 -41219.8 -41613.3 -42007.5
 S, KJ/(KG)(K)    80.3687  80.4847  80.5998  80.7140  80.8274  78.6556  78.7813  78.9061

 M, (1/n)           2.016    2.016    2.016    2.016    2.016    2.016    2.016    2.016
 (dLV/dLP)t      -1.00000 -1.00000 -1.00000 -1.00000 -1.00000 -1.00000 -1.00000 -1.00000
 (dLV/dLT)p        1.0000   1.0000   1.0000   1.0000   1.0000   1.0000   1.0000   1.0000
 Cp, KJ/(KG)(K)   14.5562  14.5590  14.5618  14.5648  14.5678  14.5330  14.5350  14.5370
 GAMMAs            1.3954   1.3953   1.3952   1.3951   1.3949   1.3963   1.3962   1.3961
 SON VEL,M/SEC     1896.6   1904.1   1911.6   1919.0   1926.4   1819.7   1827.6   1835.4

 TRANSPORT PROPERTIES (GASES ONLY)
   CONDUCTIVITY IN UNITS OF MILLIWATTS/(CM)(K)

 VISC,MILLIPOISE  0.14789  0.14871  0.14952  0.15034  0.15115  0.13960  0.14044  0.14128

  WITH EQUILIBRIUM REACTIONS

 Cp, KJ/(KG)(K)   14.5562  14.5590  14.5618  14.5648  14.5678  14.5330  14.5350  14.5370
 CONDUCTIVITY      3.1232   3.1410   3.1587   3.1764   3.1942   2.9442   2.9625   2.9805
 PRANDTL NUMBER    0.6893   0.6893   0.6893   0.6893   0.6894   0.6891   0.6891   0.6891

  WITH FROZEN REACTIONS

 Cp, KJ/(KG)(K)   14.5562  14.5590  14.5618  14.5648  14.5678  14.5330  14.5350  14.5370
 CONDUCTIVITY      3.1232   3.1410   3.1587   3.1764   3.1942   2.9442   2.9625   2.9805
 PRANDTL NUMBER    0.6893   0.6893   0.6893   0.6893   0.6894   0.6891   0.6891   0.6891

 MOLE FRACTIONS

 *H2              1.00000  1.00000  1.00000  1.00000  1.00000  1.00000  1.00000  1.00000

  * THERMODYNAMIC PROPERTIES FITTED TO 20000.K

 NOTE. WEIGHT FRACTION OF FUEL IN TOTAL FUELS AND OF OXIDANT IN TOTAL OXIDANTS









               THERMODYNAMIC EQUILIBRIUM PROPERTIES AT ASSIGNED

                           TEMPERATURE AND PRESSURE

 CASE =                

             REACTANT                    WT FRACTION      ENERGY      TEMP
                                          (SEE NOTE)     KJ/KG-MOL      K  
             H2                           1.0000000         0.000      0.000

 O/F=    0.00000  %FUEL=100.000000  R,EQ.RATIO= 0.000000  PHI,EQ.RATIO= 0.000000

 THERMODYNAMIC PROPERTIES

 P, BAR           0.35000  0.35000  0.35000  0.35000  0.35000  0.35000  0.35000  0.35000
 T, K              590.00   595.00   600.00   605.00   610.00   615.00   620.00   625.00
 RHO, KG/CU M    1.4383-2 1.4262-2 1.4143-2 1.4026-2 1.3911-2 1.3798-2 1.3687-2 1.3577-2
 H, KJ/KG         4225.23  4297.93  4370.65  4443.37  4516.11  4588.85  4661.62  4734.39
 U, KJ/KG         1791.78  1843.86  1895.95  1948.05  2000.17  2052.29  2104.43  2156.58
 G, KJ/KG        -42402.4 -42797.8 -43193.9 -43590.6 -43987.8 -44385.7 -44784.2 -45183.2
 S, KJ/(KG)(K)    79.0298  79.1525  79.2742  79.3949  79.5146  79.6334  79.7513  79.8682

 M, (1/n)           2.016    2.016    2.016    2.016    2.016    2.016    2.016    2.016
 (dLV/dLP)t      -1.00000 -1.00000 -1.00000 -1.00000 -1.00000 -1.00000 -1.00000 -1.00000
 (dLV/dLT)p        1.0000   1.0000   1.0000   1.0000   1.0000   1.0000   1.0000   1.0000
 Cp, KJ/(KG)(K)   14.5391  14.5413  14.5436  14.5460  14.5484  14.5509  14.5535  14.5562
 GAMMAs            1.3960   1.3960   1.3959   1.3958   1.3957   1.3956   1.3955   1.3954
 SON VEL,M/SEC     1843.1   1850.9   1858.6   1866.3   1873.9   1881.5   1889.1   1896.6

 TRANSPORT PROPERTIES (GASES ONLY)
   CONDUCTIVITY IN UNITS OF MILLIWATTS/(CM)(K)

 VISC,MILLIPOISE  0.14211  0.14294  0.14377  0.14460  0.14542  0.14625  0.14707  0.14789

  WITH EQUILIBRIUM REACTIONS

 Cp, KJ/(KG)(K)   14.5391  14.5413  14.5436  14.5460  14.5484  14.5509  14.5535  14.5562
 CONDUCTIVITY      2.9984   3.0163   3.0342   3.0520   3.0698   3.0876   3.1054   3.1232
 PRANDTL NUMBER    0.6891   0.6891   0.6891   0.6892   0.6892   0.6892   0.6892   0.6893

  WITH FROZEN REACTIONS

 Cp, KJ/(KG)(K)   14.5391  14.5413  14.5436  14.5460  14.5484  14.5509  14.5535  14.5562
 CONDUCTIVITY      2.9984   3.0163   3.0342   3.0520   3.0698   3.0876   3.1054   3.1232
 PRANDTL NUMBER    0.6891   0.6891   0.6891   0.6892   0.6892   0.6892   0.6892   0.6893

 MOLE FRACTIONS

 *H2              1.00000  1.00000  1.00000  1.00000  1.00000  1.00000  1.00000  1.00000

  * THERMODYNAMIC PROPERTIES FITTED TO 20000.K

 NOTE. WEIGHT FRACTION OF FUEL IN TOTAL FUELS AND OF OXIDANT IN TOTAL OXIDANTS









               THERMODYNAMIC EQUILIBRIUM PROPERTIES AT ASSIGNED

                           TEMPERATURE AND PRESSURE

 CASE =                

             REACTANT                    WT FRACTION      ENERGY      TEMP
                                          (SEE NOTE)     KJ/KG-MOL      K  
             H2                           1.0000000         0.000      0.000

 O/F=    0.00000  %FUEL=100.000000  R,EQ.RATIO= 0.000000  PHI,EQ.RATIO= 0.000000

 THERMODYNAMIC PROPERTIES

 P, BAR           0.35000  0.35000  0.35000  0.35000  0.39000  0.39000  0.39000  0.39000
 T, K              630.00   635.00   640.00   645.00   575.00   580.00   585.00   590.00
 RHO, KG/CU M    1.3470-2 1.3364-2 1.3259-2 1.3156-2 1.6445-2 1.6303-2 1.6164-2 1.6027-2
 H, KJ/KG         4807.18  4879.98  4952.80  5025.63  4007.20  4079.86  4152.54  4225.23
 U, KJ/KG         2208.75  2260.93  2313.12  2365.33  1635.61  1687.66  1739.72  1791.78
 G, KJ/KG        -45582.8 -45983.1 -46383.8 -46785.2 -40963.1 -41354.4 -41746.4 -42139.0
 S, KJ/(KG)(K)    79.9842  80.0993  80.2135  80.3268  78.2092  78.3350  78.4598  78.5835

 M, (1/n)           2.016    2.016    2.016    2.016    2.016    2.016    2.016    2.016
 (dLV/dLP)t      -1.00000 -1.00000 -1.00000 -1.00000 -1.00000 -1.00000 -1.00000 -1.00000
 (dLV/dLT)p        1.0000   1.0000   1.0000   1.0000   1.0000   1.0000   1.0000   1.0000
 Cp, KJ/(KG)(K)   14.5590  14.5618  14.5648  14.5678  14.5330  14.5350  14.5370  14.5391
 GAMMAs            1.3953   1.3952   1.3951   1.3949   1.3963   1.3962   1.3961   1.3960
 SON VEL,M/SEC     1904.1   1911.6   1919.0   1926.4   1819.7   1827.6   1835.4   1843.1

 TRANSPORT PROPERTIES (GASES ONLY)
   CONDUCTIVITY IN UNITS OF MILLIWATTS/(CM)(K)

 VISC,MILLIPOISE  0.14871  0.14952  0.15034  0.15115  0.13960  0.14044  0.14128  0.14211

  WITH EQUILIBRIUM REACTIONS

 Cp, KJ/(KG)(K)   14.5590  14.5618  14.5648  14.5678  14.5330  14.5350  14.5370  14.5391
 CONDUCTIVITY      3.1410   3.1587   3.1764   3.1942   2.9442   2.9625   2.9805   2.9984
 PRANDTL NUMBER    0.6893   0.6893   0.6893   0.6894   0.6891   0.6891   0.6891   0.6891

  WITH FROZEN REACTIONS

 Cp, KJ/(KG)(K)   14.5590  14.5618  14.5648  14.5678  14.5330  14.5350  14.5370  14.5391
 CONDUCTIVITY      3.1410   3.1587   3.1764   3.1942   2.9442   2.9625   2.9805   2.9984
 PRANDTL NUMBER    0.6893   0.6893   0.6893   0.6894   0.6891   0.6891   0.6891   0.6891

 MOLE FRACTIONS

 *H2              1.00000  1.00000  1.00000  1.00000  1.00000  1.00000  1.00000  1.00000

  * THERMODYNAMIC PROPERTIES FITTED TO 20000.K

 NOTE. WEIGHT FRACTION OF FUEL IN TOTAL FUELS AND OF OXIDANT IN TOTAL OXIDANTS









               THERMODYNAMIC EQUILIBRIUM PROPERTIES AT ASSIGNED

                           TEMPERATURE AND PRESSURE

 CASE =                

             REACTANT                    WT FRACTION      ENERGY      TEMP
                                          (SEE NOTE)     KJ/KG-MOL      K  
             H2                           1.0000000         0.000      0.000

 O/F=    0.00000  %FUEL=100.000000  R,EQ.RATIO= 0.000000  PHI,EQ.RATIO= 0.000000

 THERMODYNAMIC PROPERTIES

 P, BAR           0.39000  0.39000  0.39000  0.39000  0.39000  0.39000  0.39000  0.39000
 T, K              595.00   600.00   605.00   610.00   615.00   620.00   625.00   630.00
 RHO, KG/CU M    1.5892-2 1.5760-2 1.5629-2 1.5501-2 1.5375-2 1.5251-2 1.5129-2 1.5009-2
 H, KJ/KG         4297.93  4370.65  4443.37  4516.11  4588.85  4661.62  4734.39  4807.18
 U, KJ/KG         1843.86  1895.95  1948.05  2000.17  2052.29  2104.43  2156.58  2208.75
 G, KJ/KG        -42532.3 -42926.1 -43320.5 -43715.6 -44111.2 -44507.4 -44904.3 -45301.7
 S, KJ/(KG)(K)    78.7062  78.8279  78.9486  79.0683  79.1871  79.3049  79.4218  79.5378

 M, (1/n)           2.016    2.016    2.016    2.016    2.016    2.016    2.016    2.016
 (dLV/dLP)t      -1.00000 -1.00000 -1.00000 -1.00000 -1.00000 -1.00000 -1.00000 -1.00000
 (dLV/dLT)p        1.0000   1.0000   1.0000   1.0000   1.0000   1.0000   1.0000   1.0000
 Cp, KJ/(KG)(K)   14.5413  14.5436  14.5460  14.5484  14.5509  14.5535  14.5562  14.5590
 GAMMAs            1.3960   1.3959   1.3958   1.3957   1.3956   1.3955   1.3954   1.3953
 SON VEL,M/SEC     1850.9   1858.6   1866.3   1873.9   1881.5   1889.1   1896.6   1904.1

 TRANSPORT PROPERTIES (GASES ONLY)
   CONDUCTIVITY IN UNITS OF MILLIWATTS/(CM)(K)

 VISC,MILLIPOISE  0.14294  0.14377  0.14460  0.14542  0.14625  0.14707  0.14789  0.14871

  WITH EQUILIBRIUM REACTIONS

 Cp, KJ/(KG)(K)   14.5413  14.5436  14.5460  14.5484  14.5509  14.5535  14.5562  14.5590
 CONDUCTIVITY      3.0163   3.0342   3.0520   3.0698   3.0876   3.1054   3.1232   3.1410
 PRANDTL NUMBER    0.6891   0.6891   0.6892   0.6892   0.6892   0.6892   0.6893   0.6893

  WITH FROZEN REACTIONS

 Cp, KJ/(KG)(K)   14.5413  14.5436  14.5460  14.5484  14.5509  14.5535  14.5562  14.5590
 CONDUCTIVITY      3.0163   3.0342   3.0520   3.0698   3.0876   3.1054   3.1232   3.1410
 PRANDTL NUMBER    0.6891   0.6891   0.6892   0.6892   0.6892   0.6892   0.6893   0.6893

 MOLE FRACTIONS

 *H2              1.00000  1.00000  1.00000  1.00000  1.00000  1.00000  1.00000  1.00000

  * THERMODYNAMIC PROPERTIES FITTED TO 20000.K

 NOTE. WEIGHT FRACTION OF FUEL IN TOTAL FUELS AND OF OXIDANT IN TOTAL OXIDANTS









               THERMODYNAMIC EQUILIBRIUM PROPERTIES AT ASSIGNED

                           TEMPERATURE AND PRESSURE

 CASE =                

             REACTANT                    WT FRACTION      ENERGY      TEMP
                                          (SEE NOTE)     KJ/KG-MOL      K  
             H2                           1.0000000         0.000      0.000

 O/F=    0.00000  %FUEL=100.000000  R,EQ.RATIO= 0.000000  PHI,EQ.RATIO= 0.000000

 THERMODYNAMIC PROPERTIES

 P, BAR           0.39000  0.39000  0.39000  0.44000  0.44000  0.44000  0.44000  0.44000
 T, K              635.00   640.00   645.00   575.00   580.00   585.00   590.00   595.00
 RHO, KG/CU M    1.4891-2 1.4775-2 1.4660-2 1.8553-2 1.8393-2 1.8236-2 1.8081-2 1.7929-2
 H, KJ/KG         4879.98  4952.80  5025.63  4007.20  4079.86  4152.54  4225.23  4297.93
 U, KJ/KG         2260.93  2313.12  2365.33  1635.61  1687.66  1739.72  1791.78  1843.86
 G, KJ/KG        -45699.6 -46098.2 -46497.3 -40677.0 -41065.9 -41455.4 -41845.5 -42236.2
 S, KJ/(KG)(K)    79.6529  79.7672  79.8805  77.7117  77.8375  77.9622  78.0860  78.2087

 M, (1/n)           2.016    2.016    2.016    2.016    2.016    2.016    2.016    2.016
 (dLV/dLP)t      -1.00000 -1.00000 -1.00000 -1.00000 -1.00000 -1.00000 -1.00000 -1.00000
 (dLV/dLT)p        1.0000   1.0000   1.0000   1.0000   1.0000   1.0000   1.0000   1.0000
 Cp, KJ/(KG)(K)   14.5618  14.5648  14.5678  14.5330  14.5350  14.5370  14.5391  14.5413
 GAMMAs            1.3952   1.3951   1.3949   1.3963   1.3962   1.3961   1.3960   1.3960
 SON VEL,M/SEC     1911.6   1919.0   1926.4   1819.7   1827.6   1835.4   1843.1   1850.9

 TRANSPORT PROPERTIES (GASES ONLY)
   CONDUCTIVITY IN UNITS OF MILLIWATTS/(CM)(K)

 VISC,MILLIPOISE  0.14952  0.15034  0.15115  0.13960  0.14044  0.14128  0.14211  0.14294

  WITH EQUILIBRIUM REACTIONS

 Cp, KJ/(KG)(K)   14.5618  14.5648  14.5678  14.5330  14.5350  14.5370  14.5391  14.5413
 CONDUCTIVITY      3.1587   3.1764   3.1942   2.9442   2.9625   2.9805   2.9984   3.0163
 PRANDTL NUMBER    0.6893   0.6893   0.6894   0.6891   0.6891   0.6891   0.6891   0.6891

  WITH FROZEN REACTIONS

 Cp, KJ/(KG)(K)   14.5618  14.5648  14.5678  14.5330  14.5350  14.5370  14.5391  14.5413
 CONDUCTIVITY      3.1587   3.1764   3.1942   2.9442   2.9625   2.9805   2.9984   3.0163
 PRANDTL NUMBER    0.6893   0.6893   0.6894   0.6891   0.6891   0.6891   0.6891   0.6891

 MOLE FRACTIONS

 *H2              1.00000  1.00000  1.00000  1.00000  1.00000  1.00000  1.00000  1.00000

  * THERMODYNAMIC PROPERTIES FITTED TO 20000.K

 NOTE. WEIGHT FRACTION OF FUEL IN TOTAL FUELS AND OF OXIDANT IN TOTAL OXIDANTS









               THERMODYNAMIC EQUILIBRIUM PROPERTIES AT ASSIGNED

                           TEMPERATURE AND PRESSURE

 CASE =                

             REACTANT                    WT FRACTION      ENERGY      TEMP
                                          (SEE NOTE)     KJ/KG-MOL      K  
             H2                           1.0000000         0.000      0.000

 O/F=    0.00000  %FUEL=100.000000  R,EQ.RATIO= 0.000000  PHI,EQ.RATIO= 0.000000

 THERMODYNAMIC PROPERTIES

 P, BAR           0.44000  0.44000  0.44000  0.44000  0.44000  0.44000  0.44000  0.44000
 T, K              600.00   605.00   610.00   615.00   620.00   625.00   630.00   635.00
 RHO, KG/CU M    1.7780-2 1.7633-2 1.7489-2 1.7346-2 1.7206-2 1.7069-2 1.6933-2 1.6800-2
 H, KJ/KG         4370.65  4443.37  4516.11  4588.85  4661.62  4734.39  4807.18  4879.98
 U, KJ/KG         1895.95  1948.05  2000.17  2052.29  2104.43  2156.58  2208.75  2260.93
 G, KJ/KG        -42627.6 -43019.5 -43412.1 -43805.2 -44199.0 -44593.3 -44988.2 -45383.7
 S, KJ/(KG)(K)    78.3304  78.4511  78.5708  78.6896  78.8074  78.9243  79.0403  79.1554

 M, (1/n)           2.016    2.016    2.016    2.016    2.016    2.016    2.016    2.016
 (dLV/dLP)t      -1.00000 -1.00000 -1.00000 -1.00000 -1.00000 -1.00000 -1.00000 -1.00000
 (dLV/dLT)p        1.0000   1.0000   1.0000   1.0000   1.0000   1.0000   1.0000   1.0000
 Cp, KJ/(KG)(K)   14.5436  14.5460  14.5484  14.5509  14.5535  14.5562  14.5590  14.5618
 GAMMAs            1.3959   1.3958   1.3957   1.3956   1.3955   1.3954   1.3953   1.3952
 SON VEL,M/SEC     1858.6   1866.3   1873.9   1881.5   1889.1   1896.6   1904.1   1911.6

 TRANSPORT PROPERTIES (GASES ONLY)
   CONDUCTIVITY IN UNITS OF MILLIWATTS/(CM)(K)

 VISC,MILLIPOISE  0.14377  0.14460  0.14542  0.14625  0.14707  0.14789  0.14871  0.14952

  WITH EQUILIBRIUM REACTIONS

 Cp, KJ/(KG)(K)   14.5436  14.5460  14.5484  14.5509  14.5535  14.5562  14.5590  14.5618
 CONDUCTIVITY      3.0342   3.0520   3.0698   3.0876   3.1054   3.1232   3.1410   3.1587
 PRANDTL NUMBER    0.6891   0.6892   0.6892   0.6892   0.6892   0.6893   0.6893   0.6893

  WITH FROZEN REACTIONS

 Cp, KJ/(KG)(K)   14.5436  14.5460  14.5484  14.5509  14.5535  14.5562  14.5590  14.5618
 CONDUCTIVITY      3.0342   3.0520   3.0698   3.0876   3.1054   3.1232   3.1410   3.1587
 PRANDTL NUMBER    0.6891   0.6892   0.6892   0.6892   0.6892   0.6893   0.6893   0.6893

 MOLE FRACTIONS

 *H2              1.00000  1.00000  1.00000  1.00000  1.00000  1.00000  1.00000  1.00000

  * THERMODYNAMIC PROPERTIES FITTED TO 20000.K

 NOTE. WEIGHT FRACTION OF FUEL IN TOTAL FUELS AND OF OXIDANT IN TOTAL OXIDANTS









               THERMODYNAMIC EQUILIBRIUM PROPERTIES AT ASSIGNED

                           TEMPERATURE AND PRESSURE

 CASE =                

             REACTANT                    WT FRACTION      ENERGY      TEMP
                                          (SEE NOTE)     KJ/KG-MOL      K  
             H2                           1.0000000         0.000      0.000

 O/F=    0.00000  %FUEL=100.000000  R,EQ.RATIO= 0.000000  PHI,EQ.RATIO= 0.000000

 THERMODYNAMIC PROPERTIES

 P, BAR           0.44000  0.44000  0.49000  0.49000  0.49000  0.49000  0.49000  0.49000
 T, K              640.00   645.00   575.00   580.00   585.00   590.00   595.00   600.00
 RHO, KG/CU M    1.6669-2 1.6540-2 2.0661-2 2.0483-2 2.0308-2 2.0136-2 1.9967-2 1.9800-2
 H, KJ/KG         4952.80  5025.63  4007.20  4079.86  4152.54  4225.23  4297.93  4370.65
 U, KJ/KG         2313.12  2365.33  1635.61  1687.66  1739.72  1791.78  1843.86  1895.95
 G, KJ/KG        -45779.8 -46176.4 -40421.8 -40808.4 -41195.7 -41583.6 -41972.1 -42361.2
 S, KJ/(KG)(K)    79.2696  79.3830  77.2678  77.3936  77.5183  77.6420  77.7647  77.8864

 M, (1/n)           2.016    2.016    2.016    2.016    2.016    2.016    2.016    2.016
 (dLV/dLP)t      -1.00000 -1.00000 -1.00000 -1.00000 -1.00000 -1.00000 -1.00000 -1.00000
 (dLV/dLT)p        1.0000   1.0000   1.0000   1.0000   1.0000   1.0000   1.0000   1.0000
 Cp, KJ/(KG)(K)   14.5648  14.5678  14.5330  14.5350  14.5370  14.5391  14.5413  14.5436
 GAMMAs            1.3951   1.3949   1.3963   1.3962   1.3961   1.3960   1.3960   1.3959
 SON VEL,M/SEC     1919.0   1926.4   1819.7   1827.6   1835.4   1843.1   1850.9   1858.6

 TRANSPORT PROPERTIES (GASES ONLY)
   CONDUCTIVITY IN UNITS OF MILLIWATTS/(CM)(K)

 VISC,MILLIPOISE  0.15034  0.15115  0.13960  0.14044  0.14128  0.14211  0.14294  0.14377

  WITH EQUILIBRIUM REACTIONS

 Cp, KJ/(KG)(K)   14.5648  14.5678  14.5330  14.5350  14.5370  14.5391  14.5413  14.5436
 CONDUCTIVITY      3.1764   3.1942   2.9442   2.9625   2.9805   2.9984   3.0163   3.0342
 PRANDTL NUMBER    0.6893   0.6894   0.6891   0.6891   0.6891   0.6891   0.6891   0.6891

  WITH FROZEN REACTIONS

 Cp, KJ/(KG)(K)   14.5648  14.5678  14.5330  14.5350  14.5370  14.5391  14.5413  14.5436
 CONDUCTIVITY      3.1764   3.1942   2.9442   2.9625   2.9805   2.9984   3.0163   3.0342
 PRANDTL NUMBER    0.6893   0.6894   0.6891   0.6891   0.6891   0.6891   0.6891   0.6891

 MOLE FRACTIONS

 *H2              1.00000  1.00000  1.00000  1.00000  1.00000  1.00000  1.00000  1.00000

  * THERMODYNAMIC PROPERTIES FITTED TO 20000.K

 NOTE. WEIGHT FRACTION OF FUEL IN TOTAL FUELS AND OF OXIDANT IN TOTAL OXIDANTS









               THERMODYNAMIC EQUILIBRIUM PROPERTIES AT ASSIGNED

                           TEMPERATURE AND PRESSURE

 CASE =                

             REACTANT                    WT FRACTION      ENERGY      TEMP
                                          (SEE NOTE)     KJ/KG-MOL      K  
             H2                           1.0000000         0.000      0.000

 O/F=    0.00000  %FUEL=100.000000  R,EQ.RATIO= 0.000000  PHI,EQ.RATIO= 0.000000

 THERMODYNAMIC PROPERTIES

 P, BAR           0.49000  0.49000  0.49000  0.49000  0.49000  0.49000  0.49000  0.49000
 T, K              605.00   610.00   615.00   620.00   625.00   630.00   635.00   640.00
 RHO, KG/CU M    1.9637-2 1.9476-2 1.9317-2 1.9162-2 1.9008-2 1.8858-2 1.8709-2 1.8563-2
 H, KJ/KG         4443.37  4516.11  4588.85  4661.62  4734.39  4807.18  4879.98  4952.80
 U, KJ/KG         1948.05  2000.17  2052.29  2104.43  2156.58  2208.75  2260.93  2313.12
 G, KJ/KG        -42750.9 -43141.3 -43532.2 -43923.7 -44315.8 -44708.5 -45101.8 -45495.7
 S, KJ/(KG)(K)    78.0071  78.1269  78.2456  78.3635  78.4804  78.5964  78.7115  78.8257

 M, (1/n)           2.016    2.016    2.016    2.016    2.016    2.016    2.016    2.016
 (dLV/dLP)t      -1.00000 -1.00000 -1.00000 -1.00000 -1.00000 -1.00000 -1.00000 -1.00000
 (dLV/dLT)p        1.0000   1.0000   1.0000   1.0000   1.0000   1.0000   1.0000   1.0000
 Cp, KJ/(KG)(K)   14.5460  14.5484  14.5509  14.5535  14.5562  14.5590  14.5618  14.5648
 GAMMAs            1.3958   1.3957   1.3956   1.3955   1.3954   1.3953   1.3952   1.3951
 SON VEL,M/SEC     1866.3   1873.9   1881.5   1889.1   1896.6   1904.1   1911.6   1919.0

 TRANSPORT PROPERTIES (GASES ONLY)
   CONDUCTIVITY IN UNITS OF MILLIWATTS/(CM)(K)

 VISC,MILLIPOISE  0.14460  0.14542  0.14625  0.14707  0.14789  0.14871  0.14952  0.15034

  WITH EQUILIBRIUM REACTIONS

 Cp, KJ/(KG)(K)   14.5460  14.5484  14.5509  14.5535  14.5562  14.5590  14.5618  14.5648
 CONDUCTIVITY      3.0520   3.0698   3.0876   3.1054   3.1232   3.1410   3.1587   3.1764
 PRANDTL NUMBER    0.6892   0.6892   0.6892   0.6892   0.6893   0.6893   0.6893   0.6893

  WITH FROZEN REACTIONS

 Cp, KJ/(KG)(K)   14.5460  14.5484  14.5509  14.5535  14.5562  14.5590  14.5618  14.5648
 CONDUCTIVITY      3.0520   3.0698   3.0876   3.1054   3.1232   3.1410   3.1587   3.1764
 PRANDTL NUMBER    0.6892   0.6892   0.6892   0.6892   0.6893   0.6893   0.6893   0.6893

 MOLE FRACTIONS

 *H2              1.00000  1.00000  1.00000  1.00000  1.00000  1.00000  1.00000  1.00000

  * THERMODYNAMIC PROPERTIES FITTED TO 20000.K

 NOTE. WEIGHT FRACTION OF FUEL IN TOTAL FUELS AND OF OXIDANT IN TOTAL OXIDANTS









               THERMODYNAMIC EQUILIBRIUM PROPERTIES AT ASSIGNED

                           TEMPERATURE AND PRESSURE

 CASE =                

             REACTANT                    WT FRACTION      ENERGY      TEMP
                                          (SEE NOTE)     KJ/KG-MOL      K  
             H2                           1.0000000         0.000      0.000

 O/F=    0.00000  %FUEL=100.000000  R,EQ.RATIO= 0.000000  PHI,EQ.RATIO= 0.000000

 THERMODYNAMIC PROPERTIES

 P, BAR           0.49000
 T, K              645.00
 RHO, KG/CU M    1.8419-2
 H, KJ/KG         5025.63
 U, KJ/KG         2365.33
 G, KJ/KG        -45890.1
 S, KJ/(KG)(K)    78.9391

 M, (1/n)           2.016
 (dLV/dLP)t      -1.00000
 (dLV/dLT)p        1.0000
 Cp, KJ/(KG)(K)   14.5678
 GAMMAs            1.3949
 SON VEL,M/SEC     1926.4

 TRANSPORT PROPERTIES (GASES ONLY)
   CONDUCTIVITY IN UNITS OF MILLIWATTS/(CM)(K)

 VISC,MILLIPOISE  0.15115

  WITH EQUILIBRIUM REACTIONS

 Cp, KJ/(KG)(K)   14.5678
 CONDUCTIVITY      3.1942
 PRANDTL NUMBER    0.6894

  WITH FROZEN REACTIONS

 Cp, KJ/(KG)(K)   14.5678
 CONDUCTIVITY      3.1942
 PRANDTL NUMBER    0.6894

 MOLE FRACTIONS

 *H2              1.00000

  * THERMODYNAMIC PROPERTIES FITTED TO 20000.K

 NOTE. WEIGHT FRACTION OF FUEL IN TOTAL FUELS AND OF OXIDANT IN TOTAL OXIDANTS



  
