
 *******************************************************************************

         NASA-GLENN CHEMICAL EQUILIBRIUM PROGRAM CEA2, MAY 21, 2004
                   BY  BONNIE MCBRIDE AND SANFORD GORDON
      REFS: NASA RP-1311, PART I, 1994 AND NASA RP-1311, PART II, 1996

 *******************************************************************************



  prob tp ions
  p,bar= 0.001,0.0011,0.0012,0.00132,0.00148,0.00165,0.0018,0.002,0.00225,0.0025,
 0.0028,0.0031,0.0035,0.0039,0.0044
  t,k= 3150,3160,3170,3180,3190,3200,3210,3220,3230,3240,3250,3260,3270,3280,3290
  
  reac
  na H2                wt%=100.0000
  
  output short
  output siunits
  output transport
  
 end





               THERMODYNAMIC EQUILIBRIUM PROPERTIES AT ASSIGNED

                           TEMPERATURE AND PRESSURE

 CASE =                

             REACTANT                    WT FRACTION      ENERGY      TEMP
                                          (SEE NOTE)     KJ/KG-MOL      K  
             H2                           1.0000000         0.000      0.000

 O/F=    0.00000  %FUEL=100.000000  R,EQ.RATIO= 0.000000  PHI,EQ.RATIO= 0.000000

 THERMODYNAMIC PROPERTIES

 P, BAR           0.00100  0.00100  0.00100  0.00100  0.00100  0.00100  0.00100  0.00100
 T, K             3150.00  3160.00  3170.00  3180.00  3190.00  3200.00  3210.00  3220.00
 RHO, KG/CU M    3.9104-6 3.8948-6 3.8794-6 3.8644-6 3.8496-6 3.8350-6 3.8207-6 3.8065-6
 H, KJ/KG        267865.2 268444.3 269003.0 269542.2 270063.2 270567.0 271054.4 271526.5
 U, KJ/KG        242292.2 242768.8 243226.0 243664.8 244086.2 244491.3 244880.9 245256.0
 G, KJ/KG       -416486.8-418658.9-420834.1-423011.1-425189.8-427370.1-429551.9-431735.2
 S, KJ/(KG)(K)   217.2546 217.4377 217.6142 217.7841 217.9477 218.1053 218.2574 218.4043

 M, (1/n)           1.024    1.023    1.023    1.022    1.021    1.020    1.020    1.019
 (dLV/dLP)t      -1.01533 -1.01456 -1.01383 -1.01314 -1.01249 -1.01187 -1.01128 -1.01073
 (dLV/dLT)p        1.2694   1.2551   1.2416   1.2289   1.2168   1.2054   1.1947   1.1845
 Cp, KJ/(KG)(K)   58.9890  56.8740  54.8784  52.9955  51.2193  49.5439  47.9637  46.4734
 GAMMAs            1.2601   1.2666   1.2732   1.2800   1.2869   1.2939   1.3010   1.3082
 SON VEL,M/SEC     5676.8   5702.7   5728.9   5755.2   5781.8   5808.5   5835.3   5862.3

 TRANSPORT PROPERTIES (GASES ONLY)
   CONDUCTIVITY IN UNITS OF MILLIWATTS/(CM)(K)

 VISC,MILLIPOISE  0.38295  0.38336  0.38381  0.38428  0.38478  0.38530  0.38584  0.38641

  WITH EQUILIBRIUM REACTIONS

 Cp, KJ/(KG)(K)   58.9890  56.8740  54.8784  52.9955  51.2193  49.5439  47.9637  46.4734
 CONDUCTIVITY     37.7969  36.4246  35.1300  33.9086  32.7567  31.6702  30.6456  29.6795
 PRANDTL NUMBER    0.5977   0.5986   0.5996   0.6006   0.6017   0.6028   0.6039   0.6051

  WITH FROZEN REACTIONS

 Cp, KJ/(KG)(K)   20.5572  20.5609  20.5643  20.5676  20.5707  20.5736  20.5763  20.5789
 CONDUCTIVITY     11.6612  11.6830  11.7053  11.7280  11.7511  11.7746  11.7983  11.8224
 PRANDTL NUMBER    0.6751   0.6747   0.6743   0.6739   0.6736   0.6732   0.6729   0.6726

 MOLE FRACTIONS

 *H               0.98391  0.98476  0.98555  0.98631  0.98701  0.98768  0.98831  0.98891
 *H2              0.01609  0.01524  0.01445  0.01369  0.01299  0.01232  0.01169  0.01109

  * THERMODYNAMIC PROPERTIES FITTED TO 20000.K

 NOTE. WEIGHT FRACTION OF FUEL IN TOTAL FUELS AND OF OXIDANT IN TOTAL OXIDANTS









               THERMODYNAMIC EQUILIBRIUM PROPERTIES AT ASSIGNED

                           TEMPERATURE AND PRESSURE

 CASE =                

             REACTANT                    WT FRACTION      ENERGY      TEMP
                                          (SEE NOTE)     KJ/KG-MOL      K  
             H2                           1.0000000         0.000      0.000

 O/F=    0.00000  %FUEL=100.000000  R,EQ.RATIO= 0.000000  PHI,EQ.RATIO= 0.000000

 THERMODYNAMIC PROPERTIES

 P, BAR           0.00100  0.00100  0.00100  0.00100  0.00100  0.00100  0.00100  0.00110
 T, K             3230.00  3240.00  3250.00  3260.00  3270.00  3280.00  3290.00  3150.00
 RHO, KG/CU M    3.7927-6 3.7790-6 3.7655-6 3.7521-6 3.7390-6 3.7260-6 3.7132-6 4.3080-6
 H, KJ/KG        271984.2 272428.2 272859.3 273278.2 273685.8 274082.5 274469.0 267179.4
 U, KJ/KG        245617.4 245965.8 246302.0 246626.8 246940.6 247244.3 247538.3 241645.4
 G, KJ/KG       -433920.0-436106.1-438293.6-440482.4-442672.5-444863.8-447056.3-414049.9
 S, KJ/(KG)(K)   218.5462 218.6834 218.8163 218.9450 219.0698 219.1909 219.3086 216.2633

 M, (1/n)           1.019    1.018    1.018    1.017    1.017    1.016    1.016    1.026
 (dLV/dLP)t      -1.01020 -1.00970 -1.00923 -1.00878 -1.00835 -1.00795 -1.00756 -1.01673
 (dLV/dLT)p        1.1749   1.1658   1.1573   1.1492   1.1415   1.1343   1.1274   1.2940
 Cp, KJ/(KG)(K)   45.0679  43.7424  42.4923  41.3134  40.2015  39.1527  38.1634  62.4338
 GAMMAs            1.3155   1.3229   1.3304   1.3379   1.3454   1.3530   1.3607   1.2511
 SON VEL,M/SEC     5889.4   5916.7   5943.9   5971.3   5998.7   6026.1   6053.4   5651.9

 TRANSPORT PROPERTIES (GASES ONLY)
   CONDUCTIVITY IN UNITS OF MILLIWATTS/(CM)(K)

 VISC,MILLIPOISE  0.38700  0.38760  0.38822  0.38886  0.38952  0.39019  0.39088  0.38404

  WITH EQUILIBRIUM REACTIONS

 Cp, KJ/(KG)(K)   45.0679  43.7424  42.4923  41.3134  40.2015  39.1527  38.1634  62.4338
 CONDUCTIVITY     28.7686  27.9099  27.1003  26.3371  25.6177  24.9395  24.3003  40.2037
 PRANDTL NUMBER    0.6063   0.6075   0.6087   0.6100   0.6113   0.6126   0.6139   0.5964

  WITH FROZEN REACTIONS

 Cp, KJ/(KG)(K)   20.5813  20.5836  20.5857  20.5877  20.5896  20.5914  20.5931  20.5510
 CONDUCTIVITY     11.8468  11.8714  11.8963  11.9215  11.9469  11.9725  11.9983  11.6776
 PRANDTL NUMBER    0.6723   0.6721   0.6718   0.6715   0.6713   0.6711   0.6709   0.6758

 MOLE FRACTIONS

 *H               0.98947  0.99001  0.99051  0.99098  0.99143  0.99186  0.99226  0.98236
 *H2              0.01053  0.00999  0.00949  0.00902  0.00857  0.00814  0.00774  0.01764

  * THERMODYNAMIC PROPERTIES FITTED TO 20000.K

 NOTE. WEIGHT FRACTION OF FUEL IN TOTAL FUELS AND OF OXIDANT IN TOTAL OXIDANTS









               THERMODYNAMIC EQUILIBRIUM PROPERTIES AT ASSIGNED

                           TEMPERATURE AND PRESSURE

 CASE =                

             REACTANT                    WT FRACTION      ENERGY      TEMP
                                          (SEE NOTE)     KJ/KG-MOL      K  
             H2                           1.0000000         0.000      0.000

 O/F=    0.00000  %FUEL=100.000000  R,EQ.RATIO= 0.000000  PHI,EQ.RATIO= 0.000000

 THERMODYNAMIC PROPERTIES

 P, BAR           0.00110  0.00110  0.00110  0.00110  0.00110  0.00110  0.00110  0.00110
 T, K             3160.00  3170.00  3180.00  3190.00  3200.00  3210.00  3220.00  3230.00
 RHO, KG/CU M    4.2905-6 4.2733-6 4.2564-6 4.2398-6 4.2235-6 4.2075-6 4.1917-6 4.1762-6
 H, KJ/KG        267792.2 268382.7 268952.3 269502.1 270033.2 270546.6 271043.4 271524.4
 U, KJ/KG        242153.9 242641.3 243108.7 243557.4 243988.4 244402.6 244801.0 245184.4
 G, KJ/KG       -416213.5-418379.0-420546.3-422715.4-424886.2-427058.7-429232.7-431408.2
 S, KJ/(KG)(K)   216.4575 216.6441 216.8235 216.9961 217.1623 217.3225 217.4770 217.6262

 M, (1/n)           1.025    1.024    1.023    1.022    1.022    1.021    1.020    1.020
 (dLV/dLP)t      -1.01590 -1.01511 -1.01436 -1.01365 -1.01298 -1.01234 -1.01174 -1.01116
 (dLV/dLT)p        1.2786   1.2639   1.2501   1.2370   1.2246   1.2129   1.2019   1.1914
 Cp, KJ/(KG)(K)   60.1477  57.9885  55.9497  54.0248  52.2077  50.4928  48.8742  47.3468
 GAMMAs            1.2572   1.2636   1.2700   1.2767   1.2834   1.2903   1.2972   1.3043
 SON VEL,M/SEC     5677.5   5703.2   5729.1   5755.2   5781.5   5808.0   5834.6   5861.4

 TRANSPORT PROPERTIES (GASES ONLY)
   CONDUCTIVITY IN UNITS OF MILLIWATTS/(CM)(K)

 VISC,MILLIPOISE  0.38440  0.38480  0.38523  0.38568  0.38616  0.38667  0.38720  0.38775

  WITH EQUILIBRIUM REACTIONS

 Cp, KJ/(KG)(K)   60.1476  57.9885  55.9497  54.0248  52.2077  50.4928  48.8742  47.3468
 CONDUCTIVITY     38.7140  37.3073  35.9791  34.7252  33.5418  32.4249  31.3710  30.3766
 PRANDTL NUMBER    0.5972   0.5981   0.5991   0.6000   0.6011   0.6021   0.6032   0.6044

  WITH FROZEN REACTIONS

 Cp, KJ/(KG)(K)   20.5550  20.5588  20.5624  20.5657  20.5689  20.5719  20.5747  20.5773
 CONDUCTIVITY     11.6988  11.7204  11.7424  11.7649  11.7877  11.8109  11.8344  11.8582
 PRANDTL NUMBER    0.6754   0.6750   0.6746   0.6742   0.6738   0.6735   0.6732   0.6728

 MOLE FRACTIONS

 *H               0.98328  0.98415  0.98498  0.98575  0.98648  0.98718  0.98783  0.98845
 *H2              0.01672  0.01585  0.01502  0.01425  0.01352  0.01282  0.01217  0.01155

  * THERMODYNAMIC PROPERTIES FITTED TO 20000.K

 NOTE. WEIGHT FRACTION OF FUEL IN TOTAL FUELS AND OF OXIDANT IN TOTAL OXIDANTS









               THERMODYNAMIC EQUILIBRIUM PROPERTIES AT ASSIGNED

                           TEMPERATURE AND PRESSURE

 CASE =                

             REACTANT                    WT FRACTION      ENERGY      TEMP
                                          (SEE NOTE)     KJ/KG-MOL      K  
             H2                           1.0000000         0.000      0.000

 O/F=    0.00000  %FUEL=100.000000  R,EQ.RATIO= 0.000000  PHI,EQ.RATIO= 0.000000

 THERMODYNAMIC PROPERTIES

 P, BAR           0.00110  0.00110  0.00110  0.00110  0.00110  0.00110  0.00120  0.00120
 T, K             3240.00  3250.00  3260.00  3270.00  3280.00  3290.00  3150.00  3160.00
 RHO, KG/CU M    4.1609-6 4.1458-6 4.1310-6 4.1163-6 4.1019-6 4.0876-6 4.7067-6 4.6872-6
 H, KJ/KG        271990.6 272442.8 272881.8 273308.3 273723.0 274126.6 266500.0 267145.8
 U, KJ/KG        245553.8 245910.0 246253.6 246585.4 246906.1 247216.2 241004.7 241544.4
 G, KJ/KG       -433585.2-435763.6-437943.4-440124.5-442306.8-444490.5-411829.9-413984.2
 S, KJ/(KG)(K)   217.7703 217.9096 218.0445 218.1751 218.3018 218.4247 215.3428 215.5475

 M, (1/n)           1.019    1.018    1.018    1.017    1.017    1.017    1.027    1.026
 (dLV/dLP)t      -1.01062 -1.01010 -1.00961 -1.00915 -1.00871 -1.00829 -1.01811 -1.01722
 (dLV/dLT)p        1.1815   1.1722   1.1634   1.1550   1.1471   1.1396   1.3183   1.3017
 Cp, KJ/(KG)(K)   45.9055  44.5454  43.2619  42.0509  40.9080  39.8295  65.8139  63.3630
 GAMMAs            1.3115   1.3188   1.3261   1.3335   1.3410   1.3485   1.2432   1.2491
 SON VEL,M/SEC     5888.3   5915.3   5942.4   5969.5   5996.8   6024.0   5629.9   5655.0

 TRANSPORT PROPERTIES (GASES ONLY)
   CONDUCTIVITY IN UNITS OF MILLIWATTS/(CM)(K)

 VISC,MILLIPOISE  0.38832  0.38891  0.38952  0.39015  0.39079  0.39145  0.38511  0.38543

  WITH EQUILIBRIUM REACTIONS

 Cp, KJ/(KG)(K)   45.9055  44.5454  43.2619  42.0509  40.9080  39.8295  65.8139  63.3629
 CONDUCTIVITY     29.4384  28.5534  27.7186  26.9311  26.1883  25.4878  42.5733  40.9697
 PRANDTL NUMBER    0.6055   0.6067   0.6079   0.6092   0.6104   0.6117   0.5953   0.5961

  WITH FROZEN REACTIONS

 Cp, KJ/(KG)(K)   20.5798  20.5821  20.5843  20.5864  20.5884  20.5902  20.5448  20.5492
 CONDUCTIVITY     11.8824  11.9068  11.9315  11.9564  11.9816  12.0070  11.6941  11.7145
 PRANDTL NUMBER    0.6726   0.6723   0.6720   0.6718   0.6715   0.6713   0.6766   0.6761

 MOLE FRACTIONS

 *H               0.98903  0.98958  0.99010  0.99059  0.99106  0.99150  0.98082  0.98182
 *H2              0.01097  0.01042  0.00990  0.00941  0.00894  0.00850  0.01918  0.01818

  * THERMODYNAMIC PROPERTIES FITTED TO 20000.K

 NOTE. WEIGHT FRACTION OF FUEL IN TOTAL FUELS AND OF OXIDANT IN TOTAL OXIDANTS









               THERMODYNAMIC EQUILIBRIUM PROPERTIES AT ASSIGNED

                           TEMPERATURE AND PRESSURE

 CASE =                

             REACTANT                    WT FRACTION      ENERGY      TEMP
                                          (SEE NOTE)     KJ/KG-MOL      K  
             H2                           1.0000000         0.000      0.000

 O/F=    0.00000  %FUEL=100.000000  R,EQ.RATIO= 0.000000  PHI,EQ.RATIO= 0.000000

 THERMODYNAMIC PROPERTIES

 P, BAR           0.00120  0.00120  0.00120  0.00120  0.00120  0.00120  0.00120  0.00120
 T, K             3170.00  3180.00  3190.00  3200.00  3210.00  3220.00  3230.00  3240.00
 RHO, KG/CU M    4.6681-6 4.6494-6 4.6309-6 4.6129-6 4.5951-6 4.5776-6 4.5604-6 4.5435-6
 H, KJ/KG        267767.7 268367.1 268945.2 269503.3 270042.3 270563.3 271067.5 271555.6
 U, KJ/KG        242061.4 242557.1 243032.6 243489.0 243927.4 244348.8 244754.1 245144.3
 G, KJ/KG       -416140.7-418299.1-420459.3-422621.4-424785.1-426950.5-429117.5-431286.0
 S, KJ/(KG)(K)   215.7440 215.9328 216.1143 216.2889 216.4571 216.6192 216.7755 216.9264

 M, (1/n)           1.025    1.024    1.024    1.023    1.022    1.021    1.021    1.020
 (dLV/dLP)t      -1.01637 -1.01557 -1.01480 -1.01408 -1.01339 -1.01273 -1.01211 -1.01153
 (dLV/dLT)p        1.2859   1.2710   1.2569   1.2436   1.2310   1.2190   1.2077   1.1971
 Cp, KJ/(KG)(K)   61.0461  58.8564  56.7875  54.8331  52.9871  51.2437  49.5975  48.0430
 GAMMAs            1.2552   1.2614   1.2677   1.2742   1.2808   1.2876   1.2945   1.3014
 SON VEL,M/SEC     5680.3   5705.8   5731.5   5757.4   5783.5   5809.8   5836.2   5862.8

 TRANSPORT PROPERTIES (GASES ONLY)
   CONDUCTIVITY IN UNITS OF MILLIWATTS/(CM)(K)

 VISC,MILLIPOISE  0.38579  0.38617  0.38658  0.38702  0.38749  0.38798  0.38849  0.38903

  WITH EQUILIBRIUM REACTIONS

 Cp, KJ/(KG)(K)   61.0461  58.8564  56.7875  54.8331  52.9871  51.2437  49.5975  48.0430
 CONDUCTIVITY     39.4541  38.0220  36.6689  35.3909  34.1839  33.0441  31.9680  30.9521
 PRANDTL NUMBER    0.5969   0.5978   0.5987   0.5996   0.6006   0.6017   0.6027   0.6038

  WITH FROZEN REACTIONS

 Cp, KJ/(KG)(K)   20.5533  20.5572  20.5608  20.5642  20.5674  20.5705  20.5733  20.5760
 CONDUCTIVITY     11.7354  11.7568  11.7786  11.8008  11.8234  11.8463  11.8696  11.8932
 PRANDTL NUMBER    0.6757   0.6752   0.6748   0.6744   0.6741   0.6737   0.6734   0.6730

 MOLE FRACTIONS

 *H               0.98276  0.98365  0.98450  0.98529  0.98604  0.98675  0.98742  0.98805
 *H2              0.01724  0.01635  0.01550  0.01471  0.01396  0.01325  0.01258  0.01195

  * THERMODYNAMIC PROPERTIES FITTED TO 20000.K

 NOTE. WEIGHT FRACTION OF FUEL IN TOTAL FUELS AND OF OXIDANT IN TOTAL OXIDANTS









               THERMODYNAMIC EQUILIBRIUM PROPERTIES AT ASSIGNED

                           TEMPERATURE AND PRESSURE

 CASE =                

             REACTANT                    WT FRACTION      ENERGY      TEMP
                                          (SEE NOTE)     KJ/KG-MOL      K  
             H2                           1.0000000         0.000      0.000

 O/F=    0.00000  %FUEL=100.000000  R,EQ.RATIO= 0.000000  PHI,EQ.RATIO= 0.000000

 THERMODYNAMIC PROPERTIES

 P, BAR           0.00120  0.00120  0.00120  0.00120  0.00120  0.00132  0.00132  0.00132
 T, K             3250.00  3260.00  3270.00  3280.00  3290.00  3150.00  3160.00  3170.00
 RHO, KG/CU M    4.5268-6 4.5104-6 4.4943-6 4.4783-6 4.4626-6 5.1868-6 5.1648-6 5.1433-6
 H, KJ/KG        272028.6 272487.4 272932.7 273365.2 273785.8 265693.0 266377.5 267036.4
 U, KJ/KG        245520.1 245882.4 246232.0 246569.5 246895.6 240243.6 240820.0 241372.0
 G, KJ/KG       -433456.0-435627.4-437800.2-439974.4-442149.8-409402.0-411546.2-413692.6
 S, KJ/(KG)(K)   217.0722 217.2131 217.3495 217.4816 217.6096 214.3159 214.5328 214.7410

 M, (1/n)           1.019    1.019    1.018    1.018    1.017    1.029    1.028    1.027
 (dLV/dLP)t      -1.01097 -1.01044 -1.00994 -1.00946 -1.00901 -1.01974 -1.01878 -1.01786
 (dLV/dLT)p        1.1870   1.1774   1.1684   1.1598   1.1517   1.3469   1.3289   1.3119
 Cp, KJ/(KG)(K)   46.5754  45.1897  43.8815  42.6464  41.4803  69.7868  67.1462  64.6473
 GAMMAs            1.3085   1.3157   1.3229   1.3302   1.3376   1.2350   1.2406   1.2464
 SON VEL,M/SEC     5889.5   5916.3   5943.2   5970.2   5997.3   5606.2   5630.9   5655.8

 TRANSPORT PROPERTIES (GASES ONLY)
   CONDUCTIVITY IN UNITS OF MILLIWATTS/(CM)(K)

 VISC,MILLIPOISE  0.38959  0.39017  0.39077  0.39139  0.39202  0.38639  0.38665  0.38695

  WITH EQUILIBRIUM REACTIONS

 Cp, KJ/(KG)(K)   46.5754  45.1897  43.8815  42.6464  41.4803  69.7868  67.1461  64.6473
 CONDUCTIVITY     29.9930  29.0878  28.2335  27.4271  26.6662  45.3684  43.6329  41.9908
 PRANDTL NUMBER    0.6050   0.6062   0.6073   0.6086   0.6098   0.5944   0.5950   0.5957

  WITH FROZEN REACTIONS

 Cp, KJ/(KG)(K)   20.5786  20.5810  20.5832  20.5853  20.5873  20.5375  20.5423  20.5467
 CONDUCTIVITY     11.9172  11.9414  11.9659  11.9906  12.0156  11.7136  11.7331  11.7532
 PRANDTL NUMBER    0.6727   0.6725   0.6722   0.6719   0.6717   0.6775   0.6769   0.6765

 MOLE FRACTIONS

 *H               0.98865  0.98922  0.98975  0.99026  0.99074  0.97898  0.98007  0.98110
 *H2              0.01135  0.01078  0.01025  0.00974  0.00926  0.02102  0.01993  0.01890

  * THERMODYNAMIC PROPERTIES FITTED TO 20000.K

 NOTE. WEIGHT FRACTION OF FUEL IN TOTAL FUELS AND OF OXIDANT IN TOTAL OXIDANTS









               THERMODYNAMIC EQUILIBRIUM PROPERTIES AT ASSIGNED

                           TEMPERATURE AND PRESSURE

 CASE =                

             REACTANT                    WT FRACTION      ENERGY      TEMP
                                          (SEE NOTE)     KJ/KG-MOL      K  
             H2                           1.0000000         0.000      0.000

 O/F=    0.00000  %FUEL=100.000000  R,EQ.RATIO= 0.000000  PHI,EQ.RATIO= 0.000000

 THERMODYNAMIC PROPERTIES

 P, BAR           0.00132  0.00132  0.00132  0.00132  0.00132  0.00132  0.00132  0.00132
 T, K             3180.00  3190.00  3200.00  3210.00  3220.00  3230.00  3240.00  3250.00
 RHO, KG/CU M    5.1222-6 5.1016-6 5.0813-6 5.0613-6 5.0418-6 5.0225-6 5.0036-6 4.9850-6
 H, KJ/KG        267670.9 268282.5 268872.3 269441.5 269991.4 270522.8 271036.9 271534.6
 U, KJ/KG        241900.9 242408.1 242894.5 243361.5 243810.1 244241.3 244655.9 245055.1
 G, KJ/KG       -415841.0-417991.4-420143.6-422297.7-424453.5-426611.0-428770.1-430930.8
 S, KJ/(KG)(K)   214.9409 215.1329 215.3175 215.4951 215.6661 215.8309 215.9898 216.1432

 M, (1/n)           1.026    1.025    1.024    1.023    1.023    1.022    1.021    1.020
 (dLV/dLP)t      -1.01699 -1.01616 -1.01537 -1.01463 -1.01392 -1.01324 -1.01260 -1.01200
 (dLV/dLT)p        1.2958   1.2805   1.2660   1.2523   1.2394   1.2271   1.2155   1.2045
 Cp, KJ/(KG)(K)   62.2833  60.0475  57.9336  55.9352  54.0465  52.2616  50.5750  48.9815
 GAMMAs            1.2523   1.2584   1.2646   1.2709   1.2774   1.2840   1.2908   1.2976
 SON VEL,M/SEC     5680.8   5706.1   5731.6   5757.3   5783.1   5809.2   5835.4   5861.7

 TRANSPORT PROPERTIES (GASES ONLY)
   CONDUCTIVITY IN UNITS OF MILLIWATTS/(CM)(K)

 VISC,MILLIPOISE  0.38728  0.38765  0.38804  0.38846  0.38891  0.38938  0.38988  0.39040

  WITH EQUILIBRIUM REACTIONS

 Cp, KJ/(KG)(K)   62.2833  60.0475  57.9336  55.9352  54.0465  52.2616  50.5750  48.9815
 CONDUCTIVITY     40.4378  38.9691  37.5807  36.2683  35.0281  33.8562  32.7490  31.7030
 PRANDTL NUMBER    0.5965   0.5973   0.5982   0.5991   0.6001   0.6011   0.6021   0.6032

  WITH FROZEN REACTIONS

 Cp, KJ/(KG)(K)   20.5510  20.5549  20.5587  20.5622  20.5655  20.5686  20.5716  20.5743
 CONDUCTIVITY     11.7738  11.7948  11.8163  11.8382  11.8605  11.8832  11.9062  11.9296
 PRANDTL NUMBER    0.6760   0.6756   0.6751   0.6747   0.6743   0.6740   0.6736   0.6733

 MOLE FRACTIONS

 *H               0.98208  0.98300  0.98387  0.98469  0.98546  0.98620  0.98689  0.98755
 *H2              0.01792  0.01700  0.01613  0.01531  0.01454  0.01380  0.01311  0.01245

  * THERMODYNAMIC PROPERTIES FITTED TO 20000.K

 NOTE. WEIGHT FRACTION OF FUEL IN TOTAL FUELS AND OF OXIDANT IN TOTAL OXIDANTS









               THERMODYNAMIC EQUILIBRIUM PROPERTIES AT ASSIGNED

                           TEMPERATURE AND PRESSURE

 CASE =                

             REACTANT                    WT FRACTION      ENERGY      TEMP
                                          (SEE NOTE)     KJ/KG-MOL      K  
             H2                           1.0000000         0.000      0.000

 O/F=    0.00000  %FUEL=100.000000  R,EQ.RATIO= 0.000000  PHI,EQ.RATIO= 0.000000

 THERMODYNAMIC PROPERTIES

 P, BAR           0.00132  0.00132  0.00132  0.00132  0.00148  0.00148  0.00148  0.00148
 T, K             3260.00  3270.00  3280.00  3290.00  3150.00  3160.00  3170.00  3180.00
 RHO, KG/CU M    4.9667-6 4.9486-6 4.9308-6 4.9133-6 5.8293-6 5.8040-6 5.7792-6 5.7549-6
 H, KJ/KG        272016.8 272484.4 272938.2 273378.9 264630.7 265365.6 266072.5 266752.8
 U, KJ/KG        245439.6 245810.2 246167.7 246512.8 239241.7 239865.8 240463.3 241035.6
 G, KJ/KG       -433093.0-435256.6-437421.6-439588.1-406493.8-408625.4-410759.4-412895.6
 S, KJ/(KG)(K)   216.2914 216.4346 216.5731 216.7073 213.0554 213.2883 213.5117 213.7259

 M, (1/n)           1.020    1.019    1.019    1.018    1.032    1.030    1.029    1.028
 (dLV/dLP)t      -1.01142 -1.01088 -1.01036 -1.00986 -1.02186 -1.02081 -1.01980 -1.01885
 (dLV/dLT)p        1.1941   1.1843   1.1750   1.1662   1.3842   1.3645   1.3459   1.3282
 Cp, KJ/(KG)(K)   47.4761  46.0539  44.7105  43.4413  74.9468  72.0664  69.3368  66.7511
 GAMMAs            1.3045   1.3116   1.3187   1.3259   1.2258   1.2310   1.2365   1.2420
 SON VEL,M/SEC     5888.2   5914.8   5941.5   5968.3   5578.6   5602.8   5627.2   5651.7

 TRANSPORT PROPERTIES (GASES ONLY)
   CONDUCTIVITY IN UNITS OF MILLIWATTS/(CM)(K)

 VISC,MILLIPOISE  0.39095  0.39151  0.39209  0.39270  0.38807  0.38826  0.38849  0.38875

  WITH EQUILIBRIUM REACTIONS

 Cp, KJ/(KG)(K)   47.4761  46.0539  44.7105  43.4413  74.9468  72.0663  69.3368  66.7511
 CONDUCTIVITY     30.7150  29.7819  28.9007  28.0685  49.0154  47.1114  45.3077  43.5996
 PRANDTL NUMBER    0.6043   0.6054   0.6066   0.6078   0.5934   0.5939   0.5945   0.5952

  WITH FROZEN REACTIONS

 Cp, KJ/(KG)(K)   20.5770  20.5794  20.5817  20.5839  20.5279  20.5332  20.5381  20.5428
 CONDUCTIVITY     11.9532  11.9772  12.0015  12.0260  11.7393  11.7577  11.7767  11.7963
 PRANDTL NUMBER    0.6730   0.6727   0.6724   0.6721   0.6786   0.6780   0.6775   0.6770

 MOLE FRACTIONS

 *H               0.98817  0.98875  0.98931  0.98983  0.97655  0.97776  0.97891  0.97999
 *H2              0.01183  0.01125  0.01069  0.01017  0.02345  0.02224  0.02109  0.02001

  * THERMODYNAMIC PROPERTIES FITTED TO 20000.K

 NOTE. WEIGHT FRACTION OF FUEL IN TOTAL FUELS AND OF OXIDANT IN TOTAL OXIDANTS









               THERMODYNAMIC EQUILIBRIUM PROPERTIES AT ASSIGNED

                           TEMPERATURE AND PRESSURE

 CASE =                

             REACTANT                    WT FRACTION      ENERGY      TEMP
                                          (SEE NOTE)     KJ/KG-MOL      K  
             H2                           1.0000000         0.000      0.000

 O/F=    0.00000  %FUEL=100.000000  R,EQ.RATIO= 0.000000  PHI,EQ.RATIO= 0.000000

 THERMODYNAMIC PROPERTIES

 P, BAR           0.00148  0.00148  0.00148  0.00148  0.00148  0.00148  0.00148  0.00148
 T, K             3190.00  3200.00  3210.00  3220.00  3230.00  3240.00  3250.00  3260.00
 RHO, KG/CU M    5.7311-6 5.7078-6 5.6849-6 5.6624-6 5.6403-6 5.6186-6 5.5973-6 5.5764-6
 H, KJ/KG        267408.0 268039.3 268648.1 269235.5 269802.8 270351.0 270881.0 271394.1
 U, KJ/KG        241583.9 242109.7 242614.1 243098.2 243563.2 244010.1 244439.9 244853.4
 G, KJ/KG       -415033.9-417174.2-419316.5-421460.6-423606.5-425754.1-427903.4-430054.3
 S, KJ/(KG)(K)   213.9316 214.1292 214.3192 214.5019 214.6778 214.8472 215.0106 215.1682

 M, (1/n)           1.027    1.026    1.025    1.024    1.023    1.023    1.022    1.021
 (dLV/dLP)t      -1.01794 -1.01707 -1.01625 -1.01547 -1.01473 -1.01402 -1.01335 -1.01272
 (dLV/dLT)p        1.3114   1.2955   1.2804   1.2661   1.2526   1.2398   1.2276   1.2161
 Cp, KJ/(KG)(K)   64.3026  61.9848  59.7913  57.7159  55.7526  53.8958  52.1398  50.4795
 GAMMAs            1.2478   1.2536   1.2596   1.2658   1.2721   1.2785   1.2850   1.2917
 SON VEL,M/SEC     5676.5   5701.4   5726.6   5751.9   5777.4   5803.2   5829.0   5855.1

 TRANSPORT PROPERTIES (GASES ONLY)
   CONDUCTIVITY IN UNITS OF MILLIWATTS/(CM)(K)

 VISC,MILLIPOISE  0.38905  0.38938  0.38974  0.39013  0.39056  0.39100  0.39147  0.39197

  WITH EQUILIBRIUM REACTIONS

 Cp, KJ/(KG)(K)   64.3026  61.9848  59.7913  57.7159  55.7526  53.8958  52.1398  50.4795
 CONDUCTIVITY     41.9825  40.4520  39.0038  37.6337  36.3379  35.1124  33.9536  32.8581
 PRANDTL NUMBER    0.5959   0.5966   0.5975   0.5983   0.5992   0.6002   0.6012   0.6022

  WITH FROZEN REACTIONS

 Cp, KJ/(KG)(K)   20.5472  20.5513  20.5552  20.5589  20.5624  20.5657  20.5687  20.5716
 CONDUCTIVITY     11.8163  11.8368  11.8578  11.8793  11.9011  11.9234  11.9460  11.9689
 PRANDTL NUMBER    0.6765   0.6760   0.6756   0.6752   0.6748   0.6744   0.6740   0.6737

 MOLE FRACTIONS

 *H               0.98101  0.98198  0.98289  0.98376  0.98458  0.98535  0.98608  0.98677
 *H2              0.01899  0.01802  0.01711  0.01624  0.01542  0.01465  0.01392  0.01323

  * THERMODYNAMIC PROPERTIES FITTED TO 20000.K

 NOTE. WEIGHT FRACTION OF FUEL IN TOTAL FUELS AND OF OXIDANT IN TOTAL OXIDANTS









               THERMODYNAMIC EQUILIBRIUM PROPERTIES AT ASSIGNED

                           TEMPERATURE AND PRESSURE

 CASE =                

             REACTANT                    WT FRACTION      ENERGY      TEMP
                                          (SEE NOTE)     KJ/KG-MOL      K  
             H2                           1.0000000         0.000      0.000

 O/F=    0.00000  %FUEL=100.000000  R,EQ.RATIO= 0.000000  PHI,EQ.RATIO= 0.000000

 THERMODYNAMIC PROPERTIES

 P, BAR           0.00148  0.00148  0.00148  0.00165  0.00165  0.00165  0.00165  0.00165
 T, K             3270.00  3280.00  3290.00  3150.00  3160.00  3170.00  3180.00  3190.00
 RHO, KG/CU M    5.5557-6 5.5354-6 5.5154-6 6.5151-6 6.4860-6 6.4576-6 6.4297-6 6.4025-6
 H, KJ/KG        271890.9 272372.5 272839.7 263518.8 264305.7 265062.2 265789.8 266490.1
 U, KJ/KG        245251.7 245635.5 246005.7 238193.1 238866.4 239510.8 240127.9 240719.0
 G, KJ/KG       -432206.8-434360.7-436516.1-403736.5-405856.0-407978.0-410102.3-412228.8
 S, KJ/(KG)(K)   215.3204 215.4675 215.6097 211.8271 212.0765 212.3155 212.5447 212.7646

 M, (1/n)           1.021    1.020    1.019    1.034    1.033    1.032    1.030    1.029
 (dLV/dLP)t      -1.01211 -1.01154 -1.01099 -1.02406 -1.02292 -1.02182 -1.02078 -1.01979
 (dLV/dLT)p        1.2053   1.1949   1.1852   1.4229   1.4015   1.3811   1.3618   1.3435
 Cp, KJ/(KG)(K)   48.9097  47.4257  46.0228  80.2633  77.1437  74.1832  71.3749  68.7121
 GAMMAs            1.2984   1.3053   1.3122   1.2176   1.2226   1.2277   1.2329   1.2383
 SON VEL,M/SEC     5881.3   5907.6   5934.0   5553.1   5576.9   5600.7   5624.8   5649.1

 TRANSPORT PROPERTIES (GASES ONLY)
   CONDUCTIVITY IN UNITS OF MILLIWATTS/(CM)(K)

 VISC,MILLIPOISE  0.39249  0.39303  0.39359  0.38982  0.38993  0.39009  0.39028  0.39052

  WITH EQUILIBRIUM REACTIONS

 Cp, KJ/(KG)(K)   48.9097  47.4257  46.0228  80.2633  77.1437  74.1832  71.3749  68.7121
 CONDUCTIVITY     31.8225  30.8436  29.9185  52.7931  50.7193  48.7521  46.8869  45.1189
 PRANDTL NUMBER    0.6032   0.6043   0.6055   0.5927   0.5931   0.5936   0.5941   0.5947

  WITH FROZEN REACTIONS

 Cp, KJ/(KG)(K)   20.5744  20.5770  20.5794  20.5179  20.5236  20.5291  20.5342  20.5391
 CONDUCTIVITY     11.9922  12.0158  12.0397  11.7662  11.7835  11.8014  11.8198  11.8388
 PRANDTL NUMBER    0.6734   0.6731   0.6728   0.6798   0.6792   0.6786   0.6780   0.6775

 MOLE FRACTIONS

 *H               0.98742  0.98804  0.98863  0.97399  0.97533  0.97660  0.97779  0.97892
 *H2              0.01258  0.01196  0.01137  0.02601  0.02467  0.02340  0.02221  0.02108

  * THERMODYNAMIC PROPERTIES FITTED TO 20000.K

 NOTE. WEIGHT FRACTION OF FUEL IN TOTAL FUELS AND OF OXIDANT IN TOTAL OXIDANTS









               THERMODYNAMIC EQUILIBRIUM PROPERTIES AT ASSIGNED

                           TEMPERATURE AND PRESSURE

 CASE =                

             REACTANT                    WT FRACTION      ENERGY      TEMP
                                          (SEE NOTE)     KJ/KG-MOL      K  
             H2                           1.0000000         0.000      0.000

 O/F=    0.00000  %FUEL=100.000000  R,EQ.RATIO= 0.000000  PHI,EQ.RATIO= 0.000000

 THERMODYNAMIC PROPERTIES

 P, BAR           0.00165  0.00165  0.00165  0.00165  0.00165  0.00165  0.00165  0.00165
 T, K             3200.00  3210.00  3220.00  3230.00  3240.00  3250.00  3260.00  3270.00
 RHO, KG/CU M    6.3758-6 6.3496-6 6.3240-6 6.2988-6 6.2741-6 6.2498-6 6.2259-6 6.2025-6
 H, KJ/KG        267164.5 267814.4 268440.9 269045.4 269629.0 270192.9 270738.0 271265.5
 U, KJ/KG        241285.5 241828.7 242349.8 242850.0 243330.4 243792.1 244236.0 244663.2
 G, KJ/KG       -414357.5-416488.3-418621.1-420755.7-422892.3-425030.5-427170.5-429312.2
 S, KJ/(KG)(K)   212.9756 213.1784 213.3733 213.5607 213.7411 213.9149 214.0824 214.2439

 M, (1/n)           1.028    1.027    1.026    1.025    1.024    1.024    1.023    1.022
 (dLV/dLP)t      -1.01885 -1.01795 -1.01709 -1.01628 -1.01551 -1.01477 -1.01407 -1.01341
 (dLV/dLT)p        1.3261   1.3097   1.2940   1.2792   1.2651   1.2518   1.2392   1.2272
 Cp, KJ/(KG)(K)   66.1883  63.7971  61.5320  59.3871  57.3565  55.4344  53.6153  51.8939
 GAMMAs            1.2438   1.2495   1.2554   1.2613   1.2674   1.2737   1.2800   1.2865
 SON VEL,M/SEC     5673.6   5698.2   5723.1   5748.1   5773.4   5798.8   5824.4   5850.1

 TRANSPORT PROPERTIES (GASES ONLY)
   CONDUCTIVITY IN UNITS OF MILLIWATTS/(CM)(K)

 VISC,MILLIPOISE  0.39078  0.39109  0.39142  0.39179  0.39218  0.39260  0.39305  0.39352

  WITH EQUILIBRIUM REACTIONS

 Cp, KJ/(KG)(K)   66.1883  63.7971  61.5320  59.3871  57.3565  55.4344  53.6153  51.8939
 CONDUCTIVITY     43.4436  41.8566  40.3536  38.9306  37.5836  36.3087  35.1023  33.9609
 PRANDTL NUMBER    0.5954   0.5961   0.5968   0.5977   0.5985   0.5994   0.6003   0.6013

  WITH FROZEN REACTIONS

 Cp, KJ/(KG)(K)   20.5436  20.5479  20.5520  20.5558  20.5594  20.5628  20.5661  20.5691
 CONDUCTIVITY     11.8584  11.8785  11.8990  11.9200  11.9414  11.9632  11.9854  12.0080
 PRANDTL NUMBER    0.6770   0.6765   0.6761   0.6756   0.6752   0.6748   0.6744   0.6741

 MOLE FRACTIONS

 *H               0.97999  0.98100  0.98196  0.98286  0.98372  0.98453  0.98529  0.98602
 *H2              0.02001  0.01900  0.01804  0.01714  0.01628  0.01547  0.01471  0.01398

  * THERMODYNAMIC PROPERTIES FITTED TO 20000.K

 NOTE. WEIGHT FRACTION OF FUEL IN TOTAL FUELS AND OF OXIDANT IN TOTAL OXIDANTS









               THERMODYNAMIC EQUILIBRIUM PROPERTIES AT ASSIGNED

                           TEMPERATURE AND PRESSURE

 CASE =                

             REACTANT                    WT FRACTION      ENERGY      TEMP
                                          (SEE NOTE)     KJ/KG-MOL      K  
             H2                           1.0000000         0.000      0.000

 O/F=    0.00000  %FUEL=100.000000  R,EQ.RATIO= 0.000000  PHI,EQ.RATIO= 0.000000

 THERMODYNAMIC PROPERTIES

 P, BAR           0.00165  0.00165  0.00180  0.00180  0.00180  0.00180  0.00180  0.00180
 T, K             3280.00  3290.00  3150.00  3160.00  3170.00  3180.00  3190.00  3200.00
 RHO, KG/CU M    6.1794-6 6.1566-6 7.1229-6 7.0903-6 7.0586-6 7.0275-6 6.9971-6 6.9673-6
 H, KJ/KG        271776.2 272271.1 262551.7 263383.1 264182.2 264950.6 265689.7 266401.2
 U, KJ/KG        245074.5 245470.8 237281.0 237996.5 238681.2 239336.8 239964.7 240566.3
 G, KJ/KG       -431455.4-433600.2-401535.2-403644.7-405756.9-407871.5-409988.4-412107.6
 S, KJ/(KG)(K)   214.3999 214.5505 210.8212 211.0848 211.3372 211.5792 211.8113 212.0340

 M, (1/n)           1.021    1.021    1.036    1.035    1.034    1.032    1.031    1.030
 (dLV/dLP)t      -1.01278 -1.01218 -1.02596 -1.02473 -1.02357 -1.02245 -1.02139 -1.02038
 (dLV/dLT)p        1.2159   1.2051   1.4562   1.4333   1.4116   1.3909   1.3713   1.3527
 Cp, KJ/(KG)(K)   50.2653  48.7245  84.8174  81.4994  78.3467  75.3524  72.5102  69.8133
 GAMMAs            1.2931   1.2998   1.2115   1.2162   1.2210   1.2260   1.2312   1.2364
 SON VEL,M/SEC     5876.0   5902.1   5533.2   5556.6   5580.1   5603.8   5627.7   5651.8

 TRANSPORT PROPERTIES (GASES ONLY)
   CONDUCTIVITY IN UNITS OF MILLIWATTS/(CM)(K)

 VISC,MILLIPOISE  0.39402  0.39454  0.39133  0.39138  0.39148  0.39162  0.39179  0.39201

  WITH EQUILIBRIUM REACTIONS

 Cp, KJ/(KG)(K)   50.2653  48.7245  84.8174  81.4994  78.3467  75.3524  72.5102  69.8133
 CONDUCTIVITY     32.8811  31.8597  56.0459  53.8297  51.7250  49.7272  47.8316  46.0337
 PRANDTL NUMBER    0.6023   0.6034   0.5922   0.5926   0.5930   0.5934   0.5939   0.5945

  WITH FROZEN REACTIONS

 Cp, KJ/(KG)(K)   20.5719  20.5746  20.5091  20.5153  20.5212  20.5267  20.5320  20.5369
 CONDUCTIVITY     12.0309  12.0542  11.7896  11.8059  11.8228  11.8404  11.8585  11.8772
 PRANDTL NUMBER    0.6737   0.6734   0.6808   0.6801   0.6795   0.6789   0.6784   0.6778

 MOLE FRACTIONS

 *H               0.98670  0.98735  0.97176  0.97320  0.97457  0.97587  0.97709  0.97825
 *H2              0.01330  0.01265  0.02824  0.02680  0.02543  0.02413  0.02291  0.02175

  * THERMODYNAMIC PROPERTIES FITTED TO 20000.K

 NOTE. WEIGHT FRACTION OF FUEL IN TOTAL FUELS AND OF OXIDANT IN TOTAL OXIDANTS









               THERMODYNAMIC EQUILIBRIUM PROPERTIES AT ASSIGNED

                           TEMPERATURE AND PRESSURE

 CASE =                

             REACTANT                    WT FRACTION      ENERGY      TEMP
                                          (SEE NOTE)     KJ/KG-MOL      K  
             H2                           1.0000000         0.000      0.000

 O/F=    0.00000  %FUEL=100.000000  R,EQ.RATIO= 0.000000  PHI,EQ.RATIO= 0.000000

 THERMODYNAMIC PROPERTIES

 P, BAR           0.00180  0.00180  0.00180  0.00180  0.00180  0.00180  0.00180  0.00180
 T, K             3210.00  3220.00  3230.00  3240.00  3250.00  3260.00  3270.00  3280.00
 RHO, KG/CU M    6.9382-6 6.9096-6 6.8816-6 6.8541-6 6.8271-6 6.8006-6 6.7746-6 6.7490-6
 H, KJ/KG        267086.5 267746.8 268383.5 268997.8 269591.0 270164.0 270718.0 271254.0
 U, KJ/KG        241143.0 241696.0 242226.7 242736.1 243225.5 243695.8 244148.0 244583.2
 G, KJ/KG       -414229.1-416352.6-418478.1-420605.6-422734.9-424866.0-426998.9-429133.4
 S, KJ/(KG)(K)   212.2478 212.4532 212.6507 212.8406 213.0233 213.1994 213.3691 213.5327

 M, (1/n)           1.029    1.028    1.027    1.026    1.025    1.024    1.023    1.023
 (dLV/dLP)t      -1.01942 -1.01850 -1.01763 -1.01680 -1.01601 -1.01525 -1.01454 -1.01386
 (dLV/dLT)p        1.3350   1.3182   1.3023   1.2872   1.2728   1.2592   1.2464   1.2341
 Cp, KJ/(KG)(K)   67.2555  64.8303  62.5316  60.3535  58.2901  56.3357  54.4851  52.7328
 GAMMAs            1.2419   1.2474   1.2531   1.2590   1.2650   1.2711   1.2773   1.2837
 SON VEL,M/SEC     5676.1   5700.6   5725.2   5750.1   5775.1   5800.3   5825.7   5851.3

 TRANSPORT PROPERTIES (GASES ONLY)
   CONDUCTIVITY IN UNITS OF MILLIWATTS/(CM)(K)

 VISC,MILLIPOISE  0.39226  0.39254  0.39286  0.39321  0.39358  0.39399  0.39442  0.39488

  WITH EQUILIBRIUM REACTIONS

 Cp, KJ/(KG)(K)   67.2555  64.8303  62.5316  60.3535  58.2901  56.3357  54.4851  52.7328
 CONDUCTIVITY     44.3288  42.7129  41.1815  39.7306  38.3564  37.0550  35.8228  34.6562
 PRANDTL NUMBER    0.5951   0.5958   0.5965   0.5973   0.5981   0.5990   0.5999   0.6008

  WITH FROZEN REACTIONS

 Cp, KJ/(KG)(K)   20.5416  20.5459  20.5501  20.5540  20.5577  20.5612  20.5644  20.5675
 CONDUCTIVITY     11.8965  11.9162  11.9365  11.9572  11.9783  11.9999  12.0218  12.0442
 PRANDTL NUMBER    0.6773   0.6768   0.6764   0.6759   0.6755   0.6751   0.6747   0.6743

 MOLE FRACTIONS

 *H               0.97935  0.98038  0.98136  0.98229  0.98317  0.98400  0.98478  0.98553
 *H2              0.02065  0.01962  0.01864  0.01771  0.01683  0.01600  0.01522  0.01447

  * THERMODYNAMIC PROPERTIES FITTED TO 20000.K

 NOTE. WEIGHT FRACTION OF FUEL IN TOTAL FUELS AND OF OXIDANT IN TOTAL OXIDANTS









               THERMODYNAMIC EQUILIBRIUM PROPERTIES AT ASSIGNED

                           TEMPERATURE AND PRESSURE

 CASE =                

             REACTANT                    WT FRACTION      ENERGY      TEMP
                                          (SEE NOTE)     KJ/KG-MOL      K  
             H2                           1.0000000         0.000      0.000

 O/F=    0.00000  %FUEL=100.000000  R,EQ.RATIO= 0.000000  PHI,EQ.RATIO= 0.000000

 THERMODYNAMIC PROPERTIES

 P, BAR           0.00180  0.00200  0.00200  0.00200  0.00200  0.00200  0.00200  0.00200
 T, K             3290.00  3150.00  3160.00  3170.00  3180.00  3190.00  3200.00  3210.00
 RHO, KG/CU M    6.7238-6 7.9370-6 7.8997-6 7.8633-6 7.8277-6 7.7929-6 7.7589-6 7.7256-6
 H, KJ/KG        271773.0 261282.1 262171.1 263025.3 263846.4 264636.1 265395.8 266127.1
 U, KJ/KG        245002.3 236083.7 236853.7 237590.6 238296.1 238971.7 239619.0 240239.2
 G, KJ/KG       -431269.5-398876.5-400973.6-403073.5-405176.1-407281.2-409388.7-411498.5
 S, KJ/(KG)(K)   213.6907 209.5741 209.8559 210.1258 210.3844 210.6324 210.8702 211.0983

 M, (1/n)           1.022    1.039    1.038    1.036    1.035    1.033    1.032    1.031
 (dLV/dLP)t      -1.01321 -1.02842 -1.02710 -1.02584 -1.02463 -1.02348 -1.02238 -1.02134
 (dLV/dLT)p        1.2225   1.4994   1.4747   1.4512   1.4289   1.4076   1.3874   1.3681
 Cp, KJ/(KG)(K)   51.0740  90.6974  87.1324  83.7393  80.5118  77.4434  74.5279  71.7589
 GAMMAs            1.2902   1.2046   1.2090   1.2135   1.2182   1.2230   1.2280   1.2331
 SON VEL,M/SEC     5877.0   5509.5   5532.5   5555.7   5579.0   5602.5   5626.1   5650.0

 TRANSPORT PROPERTIES (GASES ONLY)
   CONDUCTIVITY IN UNITS OF MILLIWATTS/(CM)(K)

 VISC,MILLIPOISE  0.39536  0.39331  0.39328  0.39330  0.39336  0.39347  0.39361  0.39380

  WITH EQUILIBRIUM REACTIONS

 Cp, KJ/(KG)(K)   51.0740  90.6973  87.1324  83.7393  80.5118  77.4434  74.5279  71.7589
 CONDUCTIVITY     33.5520  60.2696  57.8738  55.5952  53.4293  51.3714  49.4169  47.5615
 PRANDTL NUMBER    0.6018   0.5919   0.5921   0.5924   0.5928   0.5932   0.5936   0.5941

  WITH FROZEN REACTIONS

 Cp, KJ/(KG)(K)   20.5705  20.4976  20.5044  20.5108  20.5169  20.5226  20.5280  20.5332
 CONDUCTIVITY     12.0669  11.8203  11.8353  11.8510  11.8674  11.8844  11.9020  11.9202
 PRANDTL NUMBER    0.6740   0.6820   0.6814   0.6807   0.6801   0.6795   0.6789   0.6783

 MOLE FRACTIONS

 *H               0.98623  0.96881  0.97040  0.97190  0.97333  0.97467  0.97595  0.97715
 *H2              0.01377  0.03119  0.02960  0.02810  0.02667  0.02533  0.02405  0.02285

  * THERMODYNAMIC PROPERTIES FITTED TO 20000.K

 NOTE. WEIGHT FRACTION OF FUEL IN TOTAL FUELS AND OF OXIDANT IN TOTAL OXIDANTS









               THERMODYNAMIC EQUILIBRIUM PROPERTIES AT ASSIGNED

                           TEMPERATURE AND PRESSURE

 CASE =                

             REACTANT                    WT FRACTION      ENERGY      TEMP
                                          (SEE NOTE)     KJ/KG-MOL      K  
             H2                           1.0000000         0.000      0.000

 O/F=    0.00000  %FUEL=100.000000  R,EQ.RATIO= 0.000000  PHI,EQ.RATIO= 0.000000

 THERMODYNAMIC PROPERTIES

 P, BAR           0.00200  0.00200  0.00200  0.00200  0.00200  0.00200  0.00200  0.00200
 T, K             3220.00  3230.00  3240.00  3250.00  3260.00  3270.00  3280.00  3290.00
 RHO, KG/CU M    7.6930-6 7.6611-6 7.6298-6 7.5991-6 7.5690-6 7.5394-6 7.5103-6 7.4818-6
 H, KJ/KG        266831.5 267510.2 268164.6 268796.0 269405.5 269994.3 270563.4 271114.0
 U, KJ/KG        240833.9 241404.3 241951.6 242477.1 242981.9 243467.0 243933.5 244382.4
 G, KJ/KG       -413610.6-415724.8-417841.1-419959.4-422079.6-424201.6-426325.4-428450.9
 S, KJ/(KG)(K)   211.3174 211.5279 211.7302 211.9247 212.1120 212.2923 212.4661 212.6337

 M, (1/n)           1.030    1.029    1.028    1.027    1.026    1.025    1.024    1.023
 (dLV/dLP)t      -1.02034 -1.01939 -1.01849 -1.01762 -1.01680 -1.01602 -1.01528 -1.01457
 (dLV/dLT)p        1.3499   1.3325   1.3161   1.3004   1.2856   1.2715   1.2581   1.2454
 Cp, KJ/(KG)(K)   69.1302  66.6357  64.2691  62.0248  59.8969  57.8799  55.9685  54.1573
 GAMMAs            1.2384   1.2438   1.2493   1.2550   1.2608   1.2667   1.2728   1.2790
 SON VEL,M/SEC     5674.0   5698.2   5722.6   5747.1   5771.9   5796.8   5821.9   5847.2

 TRANSPORT PROPERTIES (GASES ONLY)
   CONDUCTIVITY IN UNITS OF MILLIWATTS/(CM)(K)

 VISC,MILLIPOISE  0.39402  0.39427  0.39456  0.39488  0.39523  0.39561  0.39602  0.39645

  WITH EQUILIBRIUM REACTIONS

 Cp, KJ/(KG)(K)   69.1302  66.6357  64.2691  62.0248  59.8969  57.8799  55.9685  54.1573
 CONDUCTIVITY     45.8006  44.1301  42.5457  41.0434  39.6193  38.2696  36.9907  35.7791
 PRANDTL NUMBER    0.5947   0.5953   0.5960   0.5967   0.5975   0.5983   0.5992   0.6001

  WITH FROZEN REACTIONS

 Cp, KJ/(KG)(K)   20.5380  20.5425  20.5468  20.5509  20.5547  20.5583  20.5617  20.5649
 CONDUCTIVITY     11.9390  11.9582  11.9780  11.9983  12.0190  12.0401  12.0617  12.0836
 PRANDTL NUMBER    0.6778   0.6773   0.6768   0.6764   0.6759   0.6755   0.6751   0.6747

 MOLE FRACTIONS

 *H               0.97830  0.97938  0.98040  0.98137  0.98228  0.98315  0.98397  0.98475
 *H2              0.02170  0.02062  0.01960  0.01863  0.01772  0.01685  0.01603  0.01525

  * THERMODYNAMIC PROPERTIES FITTED TO 20000.K

 NOTE. WEIGHT FRACTION OF FUEL IN TOTAL FUELS AND OF OXIDANT IN TOTAL OXIDANTS









               THERMODYNAMIC EQUILIBRIUM PROPERTIES AT ASSIGNED

                           TEMPERATURE AND PRESSURE

 CASE =                

             REACTANT                    WT FRACTION      ENERGY      TEMP
                                          (SEE NOTE)     KJ/KG-MOL      K  
             H2                           1.0000000         0.000      0.000

 O/F=    0.00000  %FUEL=100.000000  R,EQ.RATIO= 0.000000  PHI,EQ.RATIO= 0.000000

 THERMODYNAMIC PROPERTIES

 P, BAR           0.00225  0.00225  0.00225  0.00225  0.00225  0.00225  0.00225  0.00225
 T, K             3150.00  3160.00  3170.00  3180.00  3190.00  3200.00  3210.00  3220.00
 RHO, KG/CU M    8.9606-6 8.9170-6 8.8745-6 8.8331-6 8.7926-6 8.7530-6 8.7144-6 8.6765-6
 H, KJ/KG        259726.2 260684.4 261604.9 262489.6 263340.2 264158.3 264945.5 265703.2
 U, KJ/KG        234616.4 235451.8 236251.5 237017.2 237750.5 238453.0 239126.1 239771.3
 G, KJ/KG       -395913.6-397996.5-400082.4-402171.2-404262.7-406356.7-408453.3-410552.3
 S, KJ/(KG)(K)   208.1396 208.4433 208.7342 209.0128 209.2799 209.5360 209.7816 210.0173

 M, (1/n)           1.043    1.041    1.040    1.038    1.036    1.035    1.034    1.032
 (dLV/dLP)t      -1.03139 -1.02996 -1.02859 -1.02727 -1.02602 -1.02482 -1.02368 -1.02259
 (dLV/dLT)p        1.5516   1.5248   1.4993   1.4749   1.4517   1.4296   1.4086   1.3885
 Cp, KJ/(KG)(K)   97.7521  93.9047  90.2352  86.7380  83.4072  80.2368  77.2207  74.3529
 GAMMAs            1.1975   1.2016   1.2058   1.2101   1.2146   1.2192   1.2240   1.2289
 SON VEL,M/SEC     5483.5   5506.2   5529.0   5551.9   5575.0   5598.2   5621.6   5645.1

 TRANSPORT PROPERTIES (GASES ONLY)
   CONDUCTIVITY IN UNITS OF MILLIWATTS/(CM)(K)

 VISC,MILLIPOISE  0.39573  0.39561  0.39553  0.39550  0.39552  0.39558  0.39568  0.39583

  WITH EQUILIBRIUM REACTIONS

 Cp, KJ/(KG)(K)   97.7521  93.9047  90.2352  86.7380  83.4072  80.2368  77.2207  74.3529
 CONDUCTIVITY     65.3740  62.7693  60.2876  57.9245  55.6756  53.5365  51.5027  49.5698
 PRANDTL NUMBER    0.5917   0.5918   0.5920   0.5922   0.5925   0.5929   0.5933   0.5937

  WITH FROZEN REACTIONS

 Cp, KJ/(KG)(K)   20.4836  20.4910  20.4981  20.5048  20.5112  20.5171  20.5228  20.5281
 CONDUCTIVITY     11.8580  11.8714  11.8856  11.9006  11.9162  11.9325  11.9494  11.9670
 PRANDTL NUMBER    0.6836   0.6829   0.6821   0.6815   0.6808   0.6802   0.6796   0.6790

 MOLE FRACTIONS

 *H               0.96517  0.96694  0.96861  0.97019  0.97168  0.97310  0.97444  0.97571
 *H2              0.03483  0.03306  0.03139  0.02981  0.02832  0.02690  0.02556  0.02429

  * THERMODYNAMIC PROPERTIES FITTED TO 20000.K

 NOTE. WEIGHT FRACTION OF FUEL IN TOTAL FUELS AND OF OXIDANT IN TOTAL OXIDANTS









               THERMODYNAMIC EQUILIBRIUM PROPERTIES AT ASSIGNED

                           TEMPERATURE AND PRESSURE

 CASE =                

             REACTANT                    WT FRACTION      ENERGY      TEMP
                                          (SEE NOTE)     KJ/KG-MOL      K  
             H2                           1.0000000         0.000      0.000

 O/F=    0.00000  %FUEL=100.000000  R,EQ.RATIO= 0.000000  PHI,EQ.RATIO= 0.000000

 THERMODYNAMIC PROPERTIES

 P, BAR           0.00225  0.00225  0.00225  0.00225  0.00225  0.00225  0.00225  0.00250
 T, K             3230.00  3240.00  3250.00  3260.00  3270.00  3280.00  3290.00  3150.00
 RHO, KG/CU M    8.6395-6 8.6033-6 8.5677-6 8.5329-6 8.4987-6 8.4652-6 8.4323-6 9.9907-6
 H, KJ/KG        266433.0 267136.2 267814.2 268468.2 269099.5 269709.2 270298.4 258203.7
 U, KJ/KG        240389.9 240983.4 241552.9 242099.7 242625.0 243129.8 243615.2 233180.5
 G, KJ/KG       -412653.6-414757.2-416862.8-418970.5-421080.2-423191.8-425305.2-393272.5
 S, KJ/(KG)(K)   210.2435 210.4609 210.6699 210.8708 211.0641 211.2503 211.4297 206.8179

 M, (1/n)           1.031    1.030    1.029    1.028    1.027    1.026    1.025    1.047
 (dLV/dLP)t      -1.02155 -1.02055 -1.01961 -1.01870 -1.01784 -1.01702 -1.01624 -1.03425
 (dLV/dLT)p        1.3695   1.3514   1.3342   1.3179   1.3023   1.2876   1.2736   1.6019
 Cp, KJ/(KG)(K)   71.6274  69.0381  66.5792  64.2449  62.0296  59.9277  57.9339 104.4953
 GAMMAs            1.2339   1.2391   1.2445   1.2499   1.2555   1.2613   1.2671   1.1917
 SON VEL,M/SEC     5668.8   5692.7   5716.7   5741.0   5765.4   5790.0   5814.8   5460.7

 TRANSPORT PROPERTIES (GASES ONLY)
   CONDUCTIVITY IN UNITS OF MILLIWATTS/(CM)(K)

 VISC,MILLIPOISE  0.39601  0.39622  0.39648  0.39676  0.39708  0.39742  0.39780  0.39809

  WITH EQUILIBRIUM REACTIONS

 Cp, KJ/(KG)(K)   71.6274  69.0381  66.5792  64.2449  62.0296  59.9277  57.9339 104.4953
 CONDUCTIVITY     47.7335  45.9897  44.3342  42.7629  41.2721  39.8578  38.5165  70.2922
 PRANDTL NUMBER    0.5942   0.5948   0.5954   0.5961   0.5968   0.5975   0.5983   0.5918

  WITH FROZEN REACTIONS

 Cp, KJ/(KG)(K)   20.5332  20.5379  20.5424  20.5467  20.5507  20.5545  20.5581  20.4698
 CONDUCTIVITY     11.9851  12.0037  12.0229  12.0426  12.0627  12.0834  12.1044  11.8948
 PRANDTL NUMBER    0.6785   0.6779   0.6774   0.6769   0.6765   0.6760   0.6756   0.6851

 MOLE FRACTIONS

 *H               0.97691  0.97805  0.97913  0.98015  0.98112  0.98204  0.98291  0.96159
 *H2              0.02309  0.02195  0.02087  0.01985  0.01888  0.01796  0.01709  0.03841

  * THERMODYNAMIC PROPERTIES FITTED TO 20000.K

 NOTE. WEIGHT FRACTION OF FUEL IN TOTAL FUELS AND OF OXIDANT IN TOTAL OXIDANTS









               THERMODYNAMIC EQUILIBRIUM PROPERTIES AT ASSIGNED

                           TEMPERATURE AND PRESSURE

 CASE =                

             REACTANT                    WT FRACTION      ENERGY      TEMP
                                          (SEE NOTE)     KJ/KG-MOL      K  
             H2                           1.0000000         0.000      0.000

 O/F=    0.00000  %FUEL=100.000000  R,EQ.RATIO= 0.000000  PHI,EQ.RATIO= 0.000000

 THERMODYNAMIC PROPERTIES

 P, BAR           0.00250  0.00250  0.00250  0.00250  0.00250  0.00250  0.00250  0.00250
 T, K             3160.00  3170.00  3180.00  3190.00  3200.00  3210.00  3220.00  3230.00
 RHO, KG/CU M    9.9406-6 9.8917-6 9.8441-6 9.7976-6 9.7523-6 9.7080-6 9.6647-6 9.6223-6
 H, KJ/KG        259228.0 260212.2 261158.0 262067.3 262941.7 263782.8 264592.3 265371.6
 U, KJ/KG        234078.6 234938.5 235762.1 236550.9 237306.6 238030.8 238724.9 239390.4
 G, KJ/KG       -395342.3-397415.3-399491.4-401570.3-403652.1-405736.5-407823.5-409912.9
 S, KJ/(KG)(K)   207.1425 207.4535 207.7514 208.0369 208.3105 208.5730 208.8248 209.0664

 M, (1/n)           1.045    1.043    1.041    1.039    1.038    1.036    1.035    1.034
 (dLV/dLP)t      -1.03272 -1.03125 -1.02984 -1.02849 -1.02719 -1.02596 -1.02478 -1.02365
 (dLV/dLT)p        1.5732   1.5457   1.5195   1.4945   1.4706   1.4479   1.4262   1.4056
 Cp, KJ/(KG)(K)  100.3924  96.4714  92.7274  89.1551  85.7489  82.5033  79.4125  76.4706
 GAMMAs            1.1954   1.1993   1.2034   1.2076   1.2119   1.2164   1.2210   1.2257
 SON VEL,M/SEC     5483.1   5505.6   5528.2   5550.9   5573.8   5596.8   5619.9   5643.2

 TRANSPORT PROPERTIES (GASES ONLY)
   CONDUCTIVITY IN UNITS OF MILLIWATTS/(CM)(K)

 VISC,MILLIPOISE  0.39787  0.39771  0.39760  0.39753  0.39751  0.39754  0.39760  0.39771

  WITH EQUILIBRIUM REACTIONS

 Cp, KJ/(KG)(K)  100.3924  96.4714  92.7274  89.1551  85.7489  82.5033  79.4125  76.4706
 CONDUCTIVITY     67.4948  64.8249  62.2783  59.8510  57.5386  55.3369  53.2415  51.2483
 PRANDTL NUMBER    0.5918   0.5919   0.5920   0.5922   0.5924   0.5927   0.5930   0.5935

  WITH FROZEN REACTIONS

 Cp, KJ/(KG)(K)   20.4779  20.4857  20.4930  20.4999  20.5064  20.5126  20.5185  20.5240
 CONDUCTIVITY     11.9068  11.9196  11.9332  11.9475  11.9625  11.9782  11.9945  12.0115
 PRANDTL NUMBER    0.6843   0.6835   0.6828   0.6821   0.6814   0.6808   0.6802   0.6796

 MOLE FRACTIONS

 *H               0.96352  0.96535  0.96708  0.96873  0.97028  0.97176  0.97315  0.97448
 *H2              0.03648  0.03465  0.03292  0.03127  0.02972  0.02824  0.02685  0.02552

  * THERMODYNAMIC PROPERTIES FITTED TO 20000.K

 NOTE. WEIGHT FRACTION OF FUEL IN TOTAL FUELS AND OF OXIDANT IN TOTAL OXIDANTS









               THERMODYNAMIC EQUILIBRIUM PROPERTIES AT ASSIGNED

                           TEMPERATURE AND PRESSURE

 CASE =                

             REACTANT                    WT FRACTION      ENERGY      TEMP
                                          (SEE NOTE)     KJ/KG-MOL      K  
             H2                           1.0000000         0.000      0.000

 O/F=    0.00000  %FUEL=100.000000  R,EQ.RATIO= 0.000000  PHI,EQ.RATIO= 0.000000

 THERMODYNAMIC PROPERTIES

 P, BAR           0.00250  0.00250  0.00250  0.00250  0.00250  0.00250  0.00280  0.00280
 T, K             3240.00  3250.00  3260.00  3270.00  3280.00  3290.00  3150.00  3160.00
 RHO, KG/CU M    9.5809-6 9.5404-6 9.5006-6 9.4617-6 9.4235-6 9.3860-6 1.1235-5 1.1177-5
 H, KJ/KG        266122.2 266845.5 267542.8 268215.5 268864.8 269491.8 256419.1 257519.1
 U, KJ/KG        240028.6 240641.0 241228.8 241793.2 242335.4 242856.5 231497.5 232467.2
 G, KJ/KG       -412004.8-414098.9-416195.2-418293.6-420394.0-422496.3-390442.4-392497.6
 S, KJ/(KG)(K)   209.2984 209.5213 209.7356 209.9416 210.1399 210.3307 205.3529 205.7015

 M, (1/n)           1.032    1.031    1.030    1.029    1.028    1.027    1.051    1.049
 (dLV/dLP)t      -1.02257 -1.02154 -1.02056 -1.01962 -1.01873 -1.01788 -1.03755 -1.03591
 (dLV/dLT)p        1.3859   1.3672   1.3495   1.3326   1.3165   1.3012   1.6599   1.6290
 Cp, KJ/(KG)(K)   73.6720  71.0107  68.4812  66.0777  63.7947  61.6267 112.1992 107.8223
 GAMMAs            1.2306   1.2357   1.2408   1.2461   1.2516   1.2571   1.1859   1.1894
 SON VEL,M/SEC     5666.7   5690.3   5714.1   5738.1   5762.2   5786.5   5436.3   5458.5

 TRANSPORT PROPERTIES (GASES ONLY)
   CONDUCTIVITY IN UNITS OF MILLIWATTS/(CM)(K)

 VISC,MILLIPOISE  0.39786  0.39805  0.39827  0.39852  0.39881  0.39913  0.40083  0.40051

  WITH EQUILIBRIUM REACTIONS

 Cp, KJ/(KG)(K)   73.6720  71.0107  68.4812  66.0777  63.7947  61.6267 112.1991 107.8223
 CONDUCTIVITY     49.3530  47.5515  45.8397  44.2137  42.6695  41.2036  75.9605  72.9517
 PRANDTL NUMBER    0.5939   0.5944   0.5950   0.5956   0.5963   0.5970   0.5921   0.5920

  WITH FROZEN REACTIONS

 Cp, KJ/(KG)(K)   20.5292  20.5341  20.5388  20.5432  20.5474  20.5513  20.4536  20.4626
 CONDUCTIVITY     12.0291  12.0472  12.0659  12.0851  12.1048  12.1249  11.9380  11.9483
 PRANDTL NUMBER    0.6790   0.6785   0.6779   0.6774   0.6770   0.6765   0.6868   0.6859

 MOLE FRACTIONS

 *H               0.97573  0.97692  0.97804  0.97911  0.98012  0.98108  0.95736  0.95948
 *H2              0.02427  0.02308  0.02196  0.02089  0.01988  0.01892  0.04264  0.04052

  * THERMODYNAMIC PROPERTIES FITTED TO 20000.K

 NOTE. WEIGHT FRACTION OF FUEL IN TOTAL FUELS AND OF OXIDANT IN TOTAL OXIDANTS









               THERMODYNAMIC EQUILIBRIUM PROPERTIES AT ASSIGNED

                           TEMPERATURE AND PRESSURE

 CASE =                

             REACTANT                    WT FRACTION      ENERGY      TEMP
                                          (SEE NOTE)     KJ/KG-MOL      K  
             H2                           1.0000000         0.000      0.000

 O/F=    0.00000  %FUEL=100.000000  R,EQ.RATIO= 0.000000  PHI,EQ.RATIO= 0.000000

 THERMODYNAMIC PROPERTIES

 P, BAR           0.00280  0.00280  0.00280  0.00280  0.00280  0.00280  0.00280  0.00280
 T, K             3170.00  3180.00  3190.00  3200.00  3210.00  3220.00  3230.00  3240.00
 RHO, KG/CU M    1.1120-5 1.1065-5 1.1011-5 1.0958-5 1.0907-5 1.0856-5 1.0807-5 1.0760-5
 H, KJ/KG        258576.2 259592.3 260569.1 261508.4 262412.0 263281.3 264118.0 264923.7
 U, KJ/KG        233396.2 234286.2 235139.0 235956.2 236739.4 237490.1 238209.9 238900.3
 G, KJ/KG       -394556.3-396618.3-398683.4-400751.5-402822.5-404896.2-406972.6-409051.5
 S, KJ/(KG)(K)   206.0355 206.3555 206.6622 206.9562 207.2381 207.5085 207.7680 208.0170

 M, (1/n)           1.047    1.045    1.043    1.041    1.040    1.038    1.037    1.035
 (dLV/dLP)t      -1.03432 -1.03280 -1.03135 -1.02995 -1.02861 -1.02733 -1.02610 -1.02493
 (dLV/dLT)p        1.5994   1.5712   1.5441   1.5183   1.4936   1.4701   1.4477   1.4263
 Cp, KJ/(KG)(K)  103.6296  99.6172  95.7807  92.1153  88.6159  85.2773  82.0942  79.0610
 GAMMAs            1.1930   1.1967   1.2006   1.2046   1.2088   1.2131   1.2175   1.2221
 SON VEL,M/SEC     5480.8   5503.1   5525.6   5548.1   5570.7   5593.5   5616.4   5639.4

 TRANSPORT PROPERTIES (GASES ONLY)
   CONDUCTIVITY IN UNITS OF MILLIWATTS/(CM)(K)

 VISC,MILLIPOISE  0.40025  0.40004  0.39988  0.39977  0.39971  0.39969  0.39972  0.39979

  WITH EQUILIBRIUM REACTIONS

 Cp, KJ/(KG)(K)  103.6296  99.6172  95.7807  92.1153  88.6159  85.2773  82.0942  79.0610
 CONDUCTIVITY     70.0742  67.3244  64.6984  62.1923  59.8020  57.5237  55.3530  53.2859
 PRANDTL NUMBER    0.5919   0.5919   0.5920   0.5921   0.5923   0.5925   0.5928   0.5932

  WITH FROZEN REACTIONS

 Cp, KJ/(KG)(K)   20.4710  20.4790  20.4866  20.4938  20.5006  20.5070  20.5131  20.5189
 CONDUCTIVITY     11.9595  11.9715  11.9843  11.9978  12.0121  12.0271  12.0428  12.0591
 PRANDTL NUMBER    0.6851   0.6843   0.6836   0.6829   0.6822   0.6815   0.6809   0.6803

 MOLE FRACTIONS

 *H               0.96150  0.96341  0.96523  0.96695  0.96858  0.97012  0.97158  0.97297
 *H2              0.03850  0.03659  0.03477  0.03305  0.03142  0.02988  0.02842  0.02703

  * THERMODYNAMIC PROPERTIES FITTED TO 20000.K

 NOTE. WEIGHT FRACTION OF FUEL IN TOTAL FUELS AND OF OXIDANT IN TOTAL OXIDANTS









               THERMODYNAMIC EQUILIBRIUM PROPERTIES AT ASSIGNED

                           TEMPERATURE AND PRESSURE

 CASE =                

             REACTANT                    WT FRACTION      ENERGY      TEMP
                                          (SEE NOTE)     KJ/KG-MOL      K  
             H2                           1.0000000         0.000      0.000

 O/F=    0.00000  %FUEL=100.000000  R,EQ.RATIO= 0.000000  PHI,EQ.RATIO= 0.000000

 THERMODYNAMIC PROPERTIES

 P, BAR           0.00280  0.00280  0.00280  0.00280  0.00280  0.00310  0.00310  0.00310
 T, K             3250.00  3260.00  3270.00  3280.00  3290.00  3150.00  3160.00  3170.00
 RHO, KG/CU M    1.0713-5 1.0667-5 1.0622-5 1.0578-5 1.0535-5 1.2489-5 1.2422-5 1.2356-5
 H, KJ/KG        265699.7 266447.6 267168.6 267864.1 268535.4 254679.0 255850.8 256977.3
 U, KJ/KG        239562.5 240198.0 240808.1 241394.0 241956.9 229856.3 230894.1 231888.9
 G, KJ/KG       -411132.9-413216.6-415302.6-417390.7-419481.0-387910.8-389952.6-391998.0
 S, KJ/(KG)(K)   208.2562 208.4860 208.7068 208.9192 209.1235 203.9967 204.3681 204.7241

 M, (1/n)           1.034    1.033    1.031    1.030    1.029    1.055    1.053    1.051
 (dLV/dLP)t      -1.02381 -1.02274 -1.02172 -1.02074 -1.01981 -1.04071 -1.03896 -1.03728
 (dLV/dLT)p        1.4059   1.3865   1.3680   1.3504   1.3337   1.7154   1.6826   1.6511
 Cp, KJ/(KG)(K)   76.1722  73.4223  70.8057  68.3169  65.9506 119.5047 114.8862 110.4520
 GAMMAs            1.2268   1.2316   1.2366   1.2417   1.2470   1.1811   1.1843   1.1877
 SON VEL,M/SEC     5662.6   5686.0   5709.5   5733.2   5757.0   5414.6   5436.7   5458.8

 TRANSPORT PROPERTIES (GASES ONLY)
   CONDUCTIVITY IN UNITS OF MILLIWATTS/(CM)(K)

 VISC,MILLIPOISE  0.39990  0.40004  0.40023  0.40045  0.40070  0.40349  0.40308  0.40272

  WITH EQUILIBRIUM REACTIONS

 Cp, KJ/(KG)(K)   76.1722  73.4223  70.8057  68.3169  65.9506 119.5047 114.8862 110.4520
 CONDUCTIVITY     51.3183  49.4462  47.6656  45.9725  44.3633  81.3874  78.1871  75.1205
 PRANDTL NUMBER    0.5936   0.5940   0.5945   0.5951   0.5957   0.5925   0.5923   0.5921

  WITH FROZEN REACTIONS

 Cp, KJ/(KG)(K)   20.5243  20.5295  20.5343  20.5389  20.5433  20.4379  20.4476  20.4567
 CONDUCTIVITY     12.0760  12.0935  12.1116  12.1302  12.1493  11.9801  11.9888  11.9984
 PRANDTL NUMBER    0.6797   0.6791   0.6786   0.6780   0.6775   0.6884   0.6875   0.6866

 MOLE FRACTIONS

 *H               0.97429  0.97553  0.97672  0.97784  0.97890  0.95320  0.95551  0.95771
 *H2              0.02571  0.02447  0.02328  0.02216  0.02110  0.04680  0.04449  0.04229

  * THERMODYNAMIC PROPERTIES FITTED TO 20000.K

 NOTE. WEIGHT FRACTION OF FUEL IN TOTAL FUELS AND OF OXIDANT IN TOTAL OXIDANTS









               THERMODYNAMIC EQUILIBRIUM PROPERTIES AT ASSIGNED

                           TEMPERATURE AND PRESSURE

 CASE =                

             REACTANT                    WT FRACTION      ENERGY      TEMP
                                          (SEE NOTE)     KJ/KG-MOL      K  
             H2                           1.0000000         0.000      0.000

 O/F=    0.00000  %FUEL=100.000000  R,EQ.RATIO= 0.000000  PHI,EQ.RATIO= 0.000000

 THERMODYNAMIC PROPERTIES

 P, BAR           0.00310  0.00310  0.00310  0.00310  0.00310  0.00310  0.00310  0.00310
 T, K             3180.00  3190.00  3200.00  3210.00  3220.00  3230.00  3240.00  3250.00
 RHO, KG/CU M    1.2293-5 1.2231-5 1.2171-5 1.2112-5 1.2055-5 1.1999-5 1.1944-5 1.1891-5
 H, KJ/KG        258060.4 259101.9 260103.5 261066.9 261993.9 262886.0 263744.8 264571.9
 U, KJ/KG        232842.4 233756.3 234632.4 235472.3 236277.6 237049.7 237790.3 238500.8
 G, KJ/KG       -394047.0-396099.3-398154.8-400213.4-402274.9-404339.2-406406.3-408475.9
 S, KJ/(KG)(K)   205.0652 205.3922 205.7057 206.0063 206.2946 206.5713 206.8368 207.0916

 M, (1/n)           1.048    1.046    1.045    1.043    1.041    1.039    1.038    1.036
 (dLV/dLP)t      -1.03566 -1.03411 -1.03261 -1.03118 -1.02980 -1.02849 -1.02723 -1.02602
 (dLV/dLT)p        1.6209   1.5920   1.5644   1.5379   1.5127   1.4886   1.4655   1.4436
 Cp, KJ/(KG)(K)  106.1992 102.1244  98.2236  94.4924  90.9264  87.5206  84.2700  81.1694
 GAMMAs            1.1912   1.1949   1.1986   1.2025   1.2065   1.2107   1.2150   1.2194
 SON VEL,M/SEC     5480.9   5503.1   5525.4   5547.8   5570.2   5592.8   5615.5   5638.4

 TRANSPORT PROPERTIES (GASES ONLY)
   CONDUCTIVITY IN UNITS OF MILLIWATTS/(CM)(K)

 VISC,MILLIPOISE  0.40242  0.40218  0.40198  0.40184  0.40174  0.40168  0.40168  0.40171

  WITH EQUILIBRIUM REACTIONS

 Cp, KJ/(KG)(K)  106.1992 102.1244  98.2236  94.4924  90.9264  87.5206  84.2700  81.1694
 CONDUCTIVITY     72.1844  69.3754  66.6901  64.1247  61.6756  59.3387  57.1101  54.9859
 PRANDTL NUMBER    0.5921   0.5920   0.5921   0.5921   0.5923   0.5925   0.5927   0.5930

  WITH FROZEN REACTIONS

 Cp, KJ/(KG)(K)   20.4654  20.4736  20.4814  20.4888  20.4958  20.5024  20.5087  20.5147
 CONDUCTIVITY     12.0089  12.0203  12.0324  12.0454  12.0591  12.0735  12.0885  12.1043
 PRANDTL NUMBER    0.6858   0.6850   0.6842   0.6835   0.6828   0.6821   0.6815   0.6808

 MOLE FRACTIONS

 *H               0.95980  0.96178  0.96365  0.96543  0.96712  0.96872  0.97024  0.97168
 *H2              0.04020  0.03822  0.03635  0.03457  0.03288  0.03128  0.02976  0.02832

  * THERMODYNAMIC PROPERTIES FITTED TO 20000.K

 NOTE. WEIGHT FRACTION OF FUEL IN TOTAL FUELS AND OF OXIDANT IN TOTAL OXIDANTS









               THERMODYNAMIC EQUILIBRIUM PROPERTIES AT ASSIGNED

                           TEMPERATURE AND PRESSURE

 CASE =                

             REACTANT                    WT FRACTION      ENERGY      TEMP
                                          (SEE NOTE)     KJ/KG-MOL      K  
             H2                           1.0000000         0.000      0.000

 O/F=    0.00000  %FUEL=100.000000  R,EQ.RATIO= 0.000000  PHI,EQ.RATIO= 0.000000

 THERMODYNAMIC PROPERTIES

 P, BAR           0.00310  0.00310  0.00310  0.00310  0.00350  0.00350  0.00350  0.00350
 T, K             3260.00  3270.00  3280.00  3290.00  3150.00  3160.00  3170.00  3180.00
 RHO, KG/CU M    1.1838-5 1.1787-5 1.1737-5 1.1688-5 1.4173-5 1.4094-5 1.4017-5 1.3942-5
 H, KJ/KG        265368.7 266136.6 266877.1 267591.3 252424.8 253686.8 254900.8 256068.6
 U, KJ/KG        239182.6 239837.0 240465.3 241068.9 227730.4 228853.7 229931.3 230965.0
 G, KJ/KG       -410548.1-412622.6-414699.5-416778.5-384905.9-386931.2-388960.4-390993.3
 S, KJ/(KG)(K)   207.3364 207.5716 207.7977 208.0152 202.3272 202.7272 203.1108 203.4786

 M, (1/n)           1.035    1.034    1.033    1.031    1.061    1.058    1.056    1.053
 (dLV/dLP)t      -1.02486 -1.02376 -1.02270 -1.02169 -1.04472 -1.04285 -1.04105 -1.03931
 (dLV/dLT)p        1.4226   1.4026   1.3836   1.3654   1.7858   1.7507   1.7169   1.6844
 Cp, KJ/(KG)(K)   78.2135  75.3969  72.7145  70.1609 128.6680 123.7728 119.0588 114.5249
 GAMMAs            1.2240   1.2286   1.2335   1.2384   1.1759   1.1789   1.1820   1.1852
 SON VEL,M/SEC     5661.3   5684.5   5707.7   5731.2   5388.7   5410.7   5432.7   5454.6

 TRANSPORT PROPERTIES (GASES ONLY)
   CONDUCTIVITY IN UNITS OF MILLIWATTS/(CM)(K)

 VISC,MILLIPOISE  0.40179  0.40190  0.40205  0.40224  0.40691  0.40638  0.40592  0.40550

  WITH EQUILIBRIUM REACTIONS

 Cp, KJ/(KG)(K)   78.2135  75.3969  72.7145  70.1609 128.6680 123.7728 119.0588 114.5249
 CONDUCTIVITY     52.9621  51.0348  49.2002  47.4543  88.2700  84.8428  81.5502  78.3901
 PRANDTL NUMBER    0.5934   0.5938   0.5942   0.5947   0.5931   0.5929   0.5926   0.5924

  WITH FROZEN REACTIONS

 Cp, KJ/(KG)(K)   20.5203  20.5256  20.5306  20.5354  20.4175  20.4281  20.4381  20.4477
 CONDUCTIVITY     12.1207  12.1376  12.1552  12.1733  12.0345  12.0413  12.0490  12.0576
 PRANDTL NUMBER    0.6802   0.6796   0.6791   0.6786   0.6904   0.6894   0.6885   0.6877

 MOLE FRACTIONS

 *H               0.97305  0.97435  0.97558  0.97675  0.94776  0.95032  0.95275  0.95506
 *H2              0.02695  0.02565  0.02442  0.02325  0.05224  0.04968  0.04725  0.04494

  * THERMODYNAMIC PROPERTIES FITTED TO 20000.K

 NOTE. WEIGHT FRACTION OF FUEL IN TOTAL FUELS AND OF OXIDANT IN TOTAL OXIDANTS









               THERMODYNAMIC EQUILIBRIUM PROPERTIES AT ASSIGNED

                           TEMPERATURE AND PRESSURE

 CASE =                

             REACTANT                    WT FRACTION      ENERGY      TEMP
                                          (SEE NOTE)     KJ/KG-MOL      K  
             H2                           1.0000000         0.000      0.000

 O/F=    0.00000  %FUEL=100.000000  R,EQ.RATIO= 0.000000  PHI,EQ.RATIO= 0.000000

 THERMODYNAMIC PROPERTIES

 P, BAR           0.00350  0.00350  0.00350  0.00350  0.00350  0.00350  0.00350  0.00350
 T, K             3190.00  3200.00  3210.00  3220.00  3230.00  3240.00  3250.00  3260.00
 RHO, KG/CU M    1.3869-5 1.3798-5 1.3729-5 1.3662-5 1.3596-5 1.3532-5 1.3470-5 1.3408-5
 H, KJ/KG        257191.9 258272.6 259312.3 260312.7 261275.6 262202.5 263095.1 263954.8
 U, KJ/KG        231956.4 232907.3 233819.3 234694.1 235533.2 236338.2 237110.6 237851.9
 G, KJ/KG       -393029.9-395069.9-397113.3-399159.8-401209.3-403261.8-405317.1-407375.1
 S, KJ/(KG)(K)   203.8313 204.1695 204.4939 204.8051 205.1037 205.3902 205.6653 205.9294

 M, (1/n)           1.051    1.049    1.047    1.045    1.043    1.042    1.040    1.038
 (dLV/dLP)t      -1.03764 -1.03603 -1.03448 -1.03299 -1.03156 -1.03019 -1.02887 -1.02761
 (dLV/dLT)p        1.6533   1.6235   1.5948   1.5674   1.5412   1.5162   1.4922   1.4693
 Cp, KJ/(KG)(K)  110.1689 105.9882 101.9796  98.1394  94.4636  90.9478  87.5876  84.3780
 GAMMAs            1.1886   1.1920   1.1956   1.1993   1.2032   1.2071   1.2112   1.2154
 SON VEL,M/SEC     5476.7   5498.7   5520.8   5543.0   5565.2   5587.6   5610.1   5632.6

 TRANSPORT PROPERTIES (GASES ONLY)
   CONDUCTIVITY IN UNITS OF MILLIWATTS/(CM)(K)

 VISC,MILLIPOISE  0.40515  0.40484  0.40459  0.40439  0.40424  0.40414  0.40408  0.40406

  WITH EQUILIBRIUM REACTIONS

 Cp, KJ/(KG)(K)  110.1689 105.9882 101.9796  98.1394  94.4636  90.9478  87.5876  84.3780
 CONDUCTIVITY     75.3597  72.4563  69.6768  67.0177  64.4755  62.0467  59.7276  57.5143
 PRANDTL NUMBER    0.5923   0.5922   0.5922   0.5922   0.5923   0.5924   0.5926   0.5928

  WITH FROZEN REACTIONS

 Cp, KJ/(KG)(K)   20.4567  20.4653  20.4735  20.4812  20.4885  20.4954  20.5020  20.5082
 CONDUCTIVITY     12.0672  12.0775  12.0888  12.1008  12.1136  12.1271  12.1413  12.1563
 PRANDTL NUMBER    0.6868   0.6860   0.6852   0.6845   0.6837   0.6830   0.6823   0.6817

 MOLE FRACTIONS

 *H               0.95725  0.95933  0.96131  0.96318  0.96496  0.96665  0.96826  0.96978
 *H2              0.04275  0.04067  0.03869  0.03682  0.03504  0.03335  0.03174  0.03022

  * THERMODYNAMIC PROPERTIES FITTED TO 20000.K

 NOTE. WEIGHT FRACTION OF FUEL IN TOTAL FUELS AND OF OXIDANT IN TOTAL OXIDANTS









               THERMODYNAMIC EQUILIBRIUM PROPERTIES AT ASSIGNED

                           TEMPERATURE AND PRESSURE

 CASE =                

             REACTANT                    WT FRACTION      ENERGY      TEMP
                                          (SEE NOTE)     KJ/KG-MOL      K  
             H2                           1.0000000         0.000      0.000

 O/F=    0.00000  %FUEL=100.000000  R,EQ.RATIO= 0.000000  PHI,EQ.RATIO= 0.000000

 THERMODYNAMIC PROPERTIES

 P, BAR           0.00350  0.00350  0.00350  0.00390  0.00390  0.00390  0.00390  0.00390
 T, K             3270.00  3280.00  3290.00  3150.00  3160.00  3170.00  3180.00  3190.00
 RHO, KG/CU M    1.3349-5 1.3290-5 1.3233-5 1.5873-5 1.5781-5 1.5692-5 1.5605-5 1.5520-5
 H, KJ/KG        264783.1 265581.5 266351.4 250242.3 251588.8 252884.8 254132.2 255332.8
 U, KJ/KG        238563.3 239246.5 239902.5 225672.2 226875.4 228030.7 229139.8 230204.3
 G, KJ/KG       -409435.6-411498.7-413564.1-382240.3-384250.3-386264.5-388282.7-390304.8
 S, KJ/(KG)(K)   206.1831 206.4269 206.6613 200.7881 201.2149 201.6244 202.0173 202.3942

 M, (1/n)           1.037    1.036    1.034    1.066    1.063    1.060    1.058    1.056
 (dLV/dLP)t      -1.02641 -1.02525 -1.02414 -1.04850 -1.04653 -1.04463 -1.04278 -1.04101
 (dLV/dLT)p        1.4475   1.4266   1.4067   1.8523   1.8152   1.7794   1.7449   1.7118
 Cp, KJ/(KG)(K)   81.3142  78.3912  75.6040 137.2199 132.0938 127.1433 122.3687 117.7694
 GAMMAs            1.2198   1.2243   1.2289   1.1717   1.1745   1.1773   1.1803   1.1834
 SON VEL,M/SEC     5655.3   5678.2   5701.2   5365.5   5387.5   5409.4   5431.3   5453.2

 TRANSPORT PROPERTIES (GASES ONLY)
   CONDUCTIVITY IN UNITS OF MILLIWATTS/(CM)(K)

 VISC,MILLIPOISE  0.40409  0.40416  0.40427  0.41020  0.40957  0.40899  0.40848  0.40802

  WITH EQUILIBRIUM REACTIONS

 Cp, KJ/(KG)(K)   81.3142  78.3912  75.6040 137.2199 132.0938 127.1433 122.3687 117.7694
 CONDUCTIVITY     55.4031  53.3903  51.4720  94.7752  91.1500  87.6588  84.3000  81.0719
 PRANDTL NUMBER    0.5931   0.5934   0.5938   0.5939   0.5935   0.5932   0.5929   0.5927

  WITH FROZEN REACTIONS

 Cp, KJ/(KG)(K)   20.5141  20.5197  20.5250  20.3978  20.4092  20.4201  20.4304  20.4403
 CONDUCTIVITY     12.1718  12.1881  12.2049  12.0872  12.0922  12.0981  12.1050  12.1128
 PRANDTL NUMBER    0.6810   0.6804   0.6799   0.6922   0.6913   0.6903   0.6894   0.6885

 MOLE FRACTIONS

 *H               0.97122  0.97260  0.97390  0.94244  0.94523  0.94789  0.95041  0.95280
 *H2              0.02878  0.02740  0.02610  0.05756  0.05477  0.05211  0.04959  0.04720

  * THERMODYNAMIC PROPERTIES FITTED TO 20000.K

 NOTE. WEIGHT FRACTION OF FUEL IN TOTAL FUELS AND OF OXIDANT IN TOTAL OXIDANTS









               THERMODYNAMIC EQUILIBRIUM PROPERTIES AT ASSIGNED

                           TEMPERATURE AND PRESSURE

 CASE =                

             REACTANT                    WT FRACTION      ENERGY      TEMP
                                          (SEE NOTE)     KJ/KG-MOL      K  
             H2                           1.0000000         0.000      0.000

 O/F=    0.00000  %FUEL=100.000000  R,EQ.RATIO= 0.000000  PHI,EQ.RATIO= 0.000000

 THERMODYNAMIC PROPERTIES

 P, BAR           0.00390  0.00390  0.00390  0.00390  0.00390  0.00390  0.00390  0.00390
 T, K             3200.00  3210.00  3220.00  3230.00  3240.00  3250.00  3260.00  3270.00
 RHO, KG/CU M    1.5438-5 1.5358-5 1.5280-5 1.5204-5 1.5130-5 1.5058-5 1.4988-5 1.4919-5
 H, KJ/KG        256488.2 257600.2 258670.6 259700.9 260692.9 261648.1 262568.2 263454.6
 U, KJ/KG        231226.0 232206.5 233147.4 234050.4 234916.9 235748.6 236546.9 237313.2
 G, KJ/KG       -392330.6-394359.9-396392.6-398428.5-400467.6-402509.7-404554.7-406602.5
 S, KJ/(KG)(K)   202.7559 203.1028 203.4358 203.7552 204.0619 204.3563 204.6389 204.9104

 M, (1/n)           1.053    1.051    1.049    1.047    1.045    1.043    1.042    1.040
 (dLV/dLP)t      -1.03929 -1.03764 -1.03605 -1.03452 -1.03304 -1.03163 -1.03027 -1.02897
 (dLV/dLT)p        1.6800   1.6494   1.6200   1.5919   1.5650   1.5392   1.5145   1.4909
 Cp, KJ/(KG)(K)  113.3442 109.0909 105.0070 101.0895  97.3349  93.7391  90.2982  87.0078
 GAMMAs            1.1866   1.1900   1.1934   1.1970   1.2007   1.2045   1.2084   1.2125
 SON VEL,M/SEC     5475.1   5497.0   5519.0   5541.1   5563.2   5585.3   5607.6   5630.0

 TRANSPORT PROPERTIES (GASES ONLY)
   CONDUCTIVITY IN UNITS OF MILLIWATTS/(CM)(K)

 VISC,MILLIPOISE  0.40761  0.40727  0.40697  0.40673  0.40653  0.40639  0.40628  0.40623

  WITH EQUILIBRIUM REACTIONS

 Cp, KJ/(KG)(K)  113.3442 109.0909 105.0070 101.0895  97.3349  93.7391  90.2982  87.0078
 CONDUCTIVITY     77.9724  74.9989  72.1487  69.4187  66.8058  64.3065  61.9174  59.6349
 PRANDTL NUMBER    0.5925   0.5924   0.5923   0.5923   0.5923   0.5924   0.5925   0.5927

  WITH FROZEN REACTIONS

 Cp, KJ/(KG)(K)   20.4496  20.4585  20.4669  20.4748  20.4824  20.4896  20.4964  20.5028
 CONDUCTIVITY     12.1215  12.1311  12.1415  12.1528  12.1648  12.1777  12.1912  12.2054
 PRANDTL NUMBER    0.6877   0.6868   0.6860   0.6852   0.6845   0.6838   0.6831   0.6824

 MOLE FRACTIONS

 *H               0.95508  0.95725  0.95930  0.96126  0.96311  0.96487  0.96655  0.96814
 *H2              0.04492  0.04275  0.04070  0.03874  0.03689  0.03513  0.03345  0.03186

  * THERMODYNAMIC PROPERTIES FITTED TO 20000.K

 NOTE. WEIGHT FRACTION OF FUEL IN TOTAL FUELS AND OF OXIDANT IN TOTAL OXIDANTS









               THERMODYNAMIC EQUILIBRIUM PROPERTIES AT ASSIGNED

                           TEMPERATURE AND PRESSURE

 CASE =                

             REACTANT                    WT FRACTION      ENERGY      TEMP
                                          (SEE NOTE)     KJ/KG-MOL      K  
             H2                           1.0000000         0.000      0.000

 O/F=    0.00000  %FUEL=100.000000  R,EQ.RATIO= 0.000000  PHI,EQ.RATIO= 0.000000

 THERMODYNAMIC PROPERTIES

 P, BAR           0.00390  0.00390  0.00440  0.00440  0.00440  0.00440  0.00440  0.00440
 T, K             3280.00  3290.00  3150.00  3160.00  3170.00  3180.00  3190.00  3200.00
 RHO, KG/CU M    1.4852-5 1.4786-5 1.8018-5 1.7909-5 1.7803-5 1.7701-5 1.7601-5 1.7504-5
 H, KJ/KG        264308.8 265132.3 247609.6 249053.9 250445.4 251785.9 253076.9 254320.2
 U, KJ/KG        238049.1 238755.8 223189.2 224485.2 225731.0 226928.2 228078.5 229183.4
 G, KJ/KG       -408652.9-410705.9-379285.4-381277.8-383274.7-385276.0-387281.3-389290.7
 S, KJ/(KG)(K)   205.1713 205.4219 199.0143 199.4720 199.9117 200.3339 200.7393 201.1284

 M, (1/n)           1.039    1.037    1.072    1.069    1.066    1.064    1.061    1.058
 (dLV/dLP)t      -1.02772 -1.02653 -1.05295 -1.05087 -1.04885 -1.04690 -1.04501 -1.04318
 (dLV/dLT)p        1.4684   1.4468   1.9304   1.8911   1.8532   1.8166   1.7812   1.7472
 Cp, KJ/(KG)(K)   83.8631  80.8597 147.1227 141.7644 136.5715 131.5463 126.6901 122.0035
 GAMMAs            1.2167   1.2210   1.1674   1.1700   1.1726   1.1754   1.1782   1.1812
 SON VEL,M/SEC     5652.5   5675.1   5339.4   5361.4   5383.3   5405.2   5427.1   5448.9

 TRANSPORT PROPERTIES (GASES ONLY)
   CONDUCTIVITY IN UNITS OF MILLIWATTS/(CM)(K)

 VISC,MILLIPOISE  0.40622  0.40625  0.41413  0.41338  0.41268  0.41205  0.41148  0.41096

  WITH EQUILIBRIUM REACTIONS

 Cp, KJ/(KG)(K)   83.8631  80.8597 147.1227 141.7644 136.5715 131.5463 126.6901 122.0035
 CONDUCTIVITY     57.4554  55.3753 102.4152  98.5791  94.8736  91.2985  87.8532  84.5365
 PRANDTL NUMBER    0.5929   0.5932   0.5949   0.5945   0.5941   0.5937   0.5934   0.5931

  WITH FROZEN REACTIONS

 Cp, KJ/(KG)(K)   20.5090  20.5148  20.3740  20.3864  20.3983  20.4096  20.4203  20.4305
 CONDUCTIVITY     12.2203  12.2359  12.1508  12.1536  12.1574  12.1623  12.1681  12.1749
 PRANDTL NUMBER    0.6817   0.6811   0.6944   0.6934   0.6924   0.6915   0.6905   0.6896

 MOLE FRACTIONS

 *H               0.96965  0.97108  0.93595  0.93902  0.94194  0.94472  0.94736  0.94988
 *H2              0.03035  0.02892  0.06405  0.06098  0.05806  0.05528  0.05264  0.05012

  * THERMODYNAMIC PROPERTIES FITTED TO 20000.K

 NOTE. WEIGHT FRACTION OF FUEL IN TOTAL FUELS AND OF OXIDANT IN TOTAL OXIDANTS









               THERMODYNAMIC EQUILIBRIUM PROPERTIES AT ASSIGNED

                           TEMPERATURE AND PRESSURE

 CASE =                

             REACTANT                    WT FRACTION      ENERGY      TEMP
                                          (SEE NOTE)     KJ/KG-MOL      K  
             H2                           1.0000000         0.000      0.000

 O/F=    0.00000  %FUEL=100.000000  R,EQ.RATIO= 0.000000  PHI,EQ.RATIO= 0.000000

 THERMODYNAMIC PROPERTIES

 P, BAR           0.00440  0.00440  0.00440  0.00440  0.00440  0.00440  0.00440  0.00440
 T, K             3210.00  3220.00  3230.00  3240.00  3250.00  3260.00  3270.00  3280.00
 RHO, KG/CU M    1.7410-5 1.7318-5 1.7229-5 1.7142-5 1.7057-5 1.6974-5 1.6894-5 1.6815-5
 H, KJ/KG        255517.5 256670.5 257780.8 258850.1 259880.0 260872.1 261828.0 262749.1
 U, KJ/KG        230244.6 231263.7 232242.2 233181.9 234084.2 234950.6 235782.6 236581.7
 G, KJ/KG       -391303.8-393320.7-395341.0-397364.7-399391.7-401421.7-403454.8-405490.7
 S, KJ/(KG)(K)   201.5020 201.8606 202.2049 202.5354 202.8528 203.1576 203.4504 203.7317

 M, (1/n)           1.056    1.054    1.052    1.050    1.048    1.046    1.044    1.042
 (dLV/dLP)t      -1.04141 -1.03970 -1.03806 -1.03647 -1.03494 -1.03348 -1.03206 -1.03071
 (dLV/dLT)p        1.7144   1.6829   1.6526   1.6236   1.5957   1.5690   1.5434   1.5188
 Cp, KJ/(KG)(K)  117.4859 113.1362 108.9526 104.9328 101.0740  97.3728  93.8257  90.4287
 GAMMAs            1.1842   1.1874   1.1907   1.1941   1.1976   1.2013   1.2050   1.2089
 SON VEL,M/SEC     5470.7   5492.5   5514.4   5536.3   5558.2   5580.2   5602.3   5624.4

 TRANSPORT PROPERTIES (GASES ONLY)
   CONDUCTIVITY IN UNITS OF MILLIWATTS/(CM)(K)

 VISC,MILLIPOISE  0.41050  0.41009  0.40974  0.40944  0.40919  0.40899  0.40884  0.40873

  WITH EQUILIBRIUM REACTIONS

 Cp, KJ/(KG)(K)  117.4859 113.1362 108.9526 104.9328 101.0740  97.3728  93.8257  90.4287
 CONDUCTIVITY     81.3467  78.2819  75.3396  72.5174  69.8122  67.2211  64.7409  62.3683
 PRANDTL NUMBER    0.5929   0.5927   0.5925   0.5925   0.5924   0.5924   0.5925   0.5926

  WITH FROZEN REACTIONS

 Cp, KJ/(KG)(K)   20.4402  20.4494  20.4582  20.4665  20.4744  20.4819  20.4891  20.4958
 CONDUCTIVITY     12.1826  12.1912  12.2006  12.2109  12.2220  12.2339  12.2465  12.2599
 PRANDTL NUMBER    0.6887   0.6879   0.6871   0.6863   0.6855   0.6847   0.6840   0.6833

 MOLE FRACTIONS

 *H               0.95227  0.95454  0.95670  0.95876  0.96071  0.96257  0.96434  0.96601
 *H2              0.04773  0.04546  0.04330  0.04124  0.03929  0.03743  0.03566  0.03399

  * THERMODYNAMIC PROPERTIES FITTED TO 20000.K

 NOTE. WEIGHT FRACTION OF FUEL IN TOTAL FUELS AND OF OXIDANT IN TOTAL OXIDANTS









               THERMODYNAMIC EQUILIBRIUM PROPERTIES AT ASSIGNED

                           TEMPERATURE AND PRESSURE

 CASE =                

             REACTANT                    WT FRACTION      ENERGY      TEMP
                                          (SEE NOTE)     KJ/KG-MOL      K  
             H2                           1.0000000         0.000      0.000

 O/F=    0.00000  %FUEL=100.000000  R,EQ.RATIO= 0.000000  PHI,EQ.RATIO= 0.000000

 THERMODYNAMIC PROPERTIES

 P, BAR           0.00440
 T, K             3290.00
 RHO, KG/CU M    1.6738-5
 H, KJ/KG        263637.0
 U, KJ/KG        237349.3
 G, KJ/KG       -407529.4
 S, KJ/(KG)(K)   204.0020

 M, (1/n)           1.041
 (dLV/dLP)t      -1.02941
 (dLV/dLT)p        1.4954
 Cp, KJ/(KG)(K)   87.1778
 GAMMAs            1.2129
 SON VEL,M/SEC     5646.7

 TRANSPORT PROPERTIES (GASES ONLY)
   CONDUCTIVITY IN UNITS OF MILLIWATTS/(CM)(K)

 VISC,MILLIPOISE  0.40867

  WITH EQUILIBRIUM REACTIONS

 Cp, KJ/(KG)(K)   87.1778
 CONDUCTIVITY     60.0999
 PRANDTL NUMBER    0.5928

  WITH FROZEN REACTIONS

 Cp, KJ/(KG)(K)   20.5022
 CONDUCTIVITY     12.2739
 PRANDTL NUMBER    0.6826

 MOLE FRACTIONS

 *H               0.96761
 *H2              0.03239

  * THERMODYNAMIC PROPERTIES FITTED TO 20000.K

 NOTE. WEIGHT FRACTION OF FUEL IN TOTAL FUELS AND OF OXIDANT IN TOTAL OXIDANTS



  
