
 *******************************************************************************

         NASA-GLENN CHEMICAL EQUILIBRIUM PROGRAM CEA2, MAY 21, 2004
                   BY  BONNIE MCBRIDE AND SANFORD GORDON
      REFS: NASA RP-1311, PART I, 1994 AND NASA RP-1311, PART II, 1996

 *******************************************************************************



  prob tp ions
  p,bar= 0.54,0.6,0.67,0.74,0.825,0.91,1.0,1.1,1.2,1.32,1.48,1.65,1.8,2.0,2.25
  t,k= 6600,6610,6620,6630,6640,6650,6660,6670,6680,6690,6700,6710,6720,6730,6740
  
  reac
  na H2                wt%=100.0000
  
  output short
  output siunits
  output transport
  
 end





               THERMODYNAMIC EQUILIBRIUM PROPERTIES AT ASSIGNED

                           TEMPERATURE AND PRESSURE

 CASE =                

             REACTANT                    WT FRACTION      ENERGY      TEMP
                                          (SEE NOTE)     KJ/KG-MOL      K  
             H2                           1.0000000         0.000      0.000

 O/F=    0.00000  %FUEL=100.000000  R,EQ.RATIO= 0.000000  PHI,EQ.RATIO= 0.000000

 THERMODYNAMIC PROPERTIES

 P, BAR           0.54000  0.54000  0.54000  0.54000  0.54000  0.54000  0.54000  0.54000
 T, K             6600.00  6610.00  6620.00  6630.00  6640.00  6650.00  6660.00  6670.00
 RHO, KG/CU M    9.9241-4 9.9089-4 9.8938-4 9.8787-4 9.8637-4 9.8487-4 9.8337-4 9.8188-4
 H, KJ/KG        346269.1 346489.1 346709.1 346929.2 347149.4 347369.7 347590.1 347810.5
 U, KJ/KG        291856.3 291992.9 292129.6 292266.3 292403.1 292540.0 292677.0 292814.1
 G, KJ/KG       -860118.5-861946.5-863774.9-865603.6-867432.6-869262.0-871091.6-872921.7
 S, KJ/(KG)(K)   182.7860 182.8193 182.8526 182.8858 182.9190 182.9521 182.9852 183.0183

 M, (1/n)           1.009    1.008    1.008    1.008    1.008    1.008    1.008    1.008
 (dLV/dLP)t      -1.00101 -1.00100 -1.00100 -1.00099 -1.00098 -1.00098 -1.00097 -1.00096
 (dLV/dLT)p        1.0113   1.0112   1.0112   1.0112   1.0112   1.0111   1.0111   1.0111
 Cp, KJ/(KG)(K)   21.9920  21.9994  22.0071  22.0152  22.0237  22.0326  22.0418  22.0513
 GAMMAs            1.6191   1.6187   1.6183   1.6180   1.6176   1.6172   1.6168   1.6163
 SON VEL,M/SEC     9386.1   9392.2   9398.3   9404.4   9410.4   9416.4   9422.4   9428.3

 TRANSPORT PROPERTIES (GASES ONLY)
   CONDUCTIVITY IN UNITS OF MILLIWATTS/(CM)(K)

 VISC,MILLIPOISE  0.69087  0.69179  0.69270  0.69361  0.69452  0.69543  0.69635  0.69726

  WITH EQUILIBRIUM REACTIONS

 Cp, KJ/(KG)(K)   21.9920  21.9994  22.0071  22.0152  22.0237  22.0326  22.0418  22.0513
 CONDUCTIVITY     22.2158  22.2387  22.2619  22.2852  22.3088  22.3325  22.3564  22.3806
 PRANDTL NUMBER    0.6839   0.6843   0.6848   0.6852   0.6856   0.6861   0.6865   0.6870

  WITH FROZEN REACTIONS

 Cp, KJ/(KG)(K)   20.6187  20.6191  20.6194  20.6198  20.6201  20.6205  20.6209  20.6212
 CONDUCTIVITY     21.4066  21.4360  21.4655  21.4949  21.5244  21.5538  21.5833  21.6127
 PRANDTL NUMBER    0.6654   0.6654   0.6654   0.6654   0.6653   0.6653   0.6653   0.6653

 MOLE FRACTIONS

 *e-              0.00030  0.00031  0.00031  0.00032  0.00033  0.00033  0.00034  0.00034
 *H               0.99854  0.99853  0.99853  0.99853  0.99853  0.99853  0.99852  0.99852
 *H+              0.00030  0.00031  0.00031  0.00032  0.00032  0.00033  0.00034  0.00034
 *H2              0.00086  0.00085  0.00084  0.00083  0.00082  0.00081  0.00080  0.00079

  * THERMODYNAMIC PROPERTIES FITTED TO 20000.K

 NOTE. WEIGHT FRACTION OF FUEL IN TOTAL FUELS AND OF OXIDANT IN TOTAL OXIDANTS









               THERMODYNAMIC EQUILIBRIUM PROPERTIES AT ASSIGNED

                           TEMPERATURE AND PRESSURE

 CASE =                

             REACTANT                    WT FRACTION      ENERGY      TEMP
                                          (SEE NOTE)     KJ/KG-MOL      K  
             H2                           1.0000000         0.000      0.000

 O/F=    0.00000  %FUEL=100.000000  R,EQ.RATIO= 0.000000  PHI,EQ.RATIO= 0.000000

 THERMODYNAMIC PROPERTIES

 P, BAR           0.54000  0.54000  0.54000  0.54000  0.54000  0.54000  0.54000  0.60000
 T, K             6680.00  6690.00  6700.00  6710.00  6720.00  6730.00  6740.00  6600.00
 RHO, KG/CU M    9.8040-4 9.7891-4 9.7744-4 9.7596-4 9.7450-4 9.7303-4 9.7157-4 1.1028-3
 H, KJ/KG        348031.1 348251.8 348472.5 348693.4 348914.4 349135.5 349356.7 346202.9
 U, KJ/KG        292951.3 293088.6 293226.0 293363.5 293501.1 293638.9 293776.7 291796.1
 G, KJ/KG       -874752.0-876582.7-878413.7-880245.0-882076.7-883908.7-885741.0-854385.9
 S, KJ/(KG)(K)   183.0514 183.0844 183.1173 183.1503 183.1832 183.2161 183.2489 181.9074

 M, (1/n)           1.008    1.008    1.008    1.008    1.008    1.008    1.008    1.009
 (dLV/dLP)t      -1.00096 -1.00095 -1.00094 -1.00094 -1.00093 -1.00093 -1.00092 -1.00110
 (dLV/dLT)p        1.0111   1.0111   1.0111   1.0111   1.0111   1.0111   1.0111   1.0119
 Cp, KJ/(KG)(K)   22.0613  22.0716  22.0822  22.0933  22.1047  22.1164  22.1285  22.0036
 GAMMAs            1.6159   1.6155   1.6150   1.6145   1.6141   1.6136   1.6131   1.6194
 SON VEL,M/SEC     9434.2   9440.0   9445.8   9451.6   9457.3   9463.0   9468.6   9386.5

 TRANSPORT PROPERTIES (GASES ONLY)
   CONDUCTIVITY IN UNITS OF MILLIWATTS/(CM)(K)

 VISC,MILLIPOISE  0.69817  0.69907  0.69998  0.70089  0.70180  0.70271  0.70361  0.69112

  WITH EQUILIBRIUM REACTIONS

 Cp, KJ/(KG)(K)   22.0613  22.0716  22.0822  22.0933  22.1047  22.1164  22.1285  22.0036
 CONDUCTIVITY     22.4049  22.4294  22.4541  22.4789  22.5040  22.5292  22.5546  22.2835
 PRANDTL NUMBER    0.6875   0.6879   0.6884   0.6889   0.6893   0.6898   0.6903   0.6824

  WITH FROZEN REACTIONS

 Cp, KJ/(KG)(K)   20.6216  20.6220  20.6224  20.6228  20.6232  20.6236  20.6241  20.6185
 CONDUCTIVITY     21.6422  21.6716  21.7011  21.7305  21.7600  21.7894  21.8189  21.4100
 PRANDTL NUMBER    0.6652   0.6652   0.6652   0.6652   0.6651   0.6651   0.6651   0.6656

 MOLE FRACTIONS

 *e-              0.00035  0.00036  0.00037  0.00037  0.00038  0.00039  0.00039  0.00028
 *H               0.99852  0.99851  0.99851  0.99850  0.99850  0.99849  0.99849  0.99847
 *H+              0.00035  0.00036  0.00037  0.00037  0.00038  0.00039  0.00039  0.00028
 *H2              0.00078  0.00077  0.00076  0.00075  0.00074  0.00073  0.00072  0.00096

  * THERMODYNAMIC PROPERTIES FITTED TO 20000.K

 NOTE. WEIGHT FRACTION OF FUEL IN TOTAL FUELS AND OF OXIDANT IN TOTAL OXIDANTS









               THERMODYNAMIC EQUILIBRIUM PROPERTIES AT ASSIGNED

                           TEMPERATURE AND PRESSURE

 CASE =                

             REACTANT                    WT FRACTION      ENERGY      TEMP
                                          (SEE NOTE)     KJ/KG-MOL      K  
             H2                           1.0000000         0.000      0.000

 O/F=    0.00000  %FUEL=100.000000  R,EQ.RATIO= 0.000000  PHI,EQ.RATIO= 0.000000

 THERMODYNAMIC PROPERTIES

 P, BAR           0.60000  0.60000  0.60000  0.60000  0.60000  0.60000  0.60000  0.60000
 T, K             6610.00  6620.00  6630.00  6640.00  6650.00  6660.00  6670.00  6680.00
 RHO, KG/CU M    1.1011-3 1.0994-3 1.0978-3 1.0961-3 1.0944-3 1.0928-3 1.0911-3 1.0894-3
 H, KJ/KG        346422.9 346643.1 346863.2 347083.5 347303.8 347524.2 347744.7 347965.2
 U, KJ/KG        291932.7 292069.5 292206.2 292343.1 292480.0 292617.0 292754.1 292891.2
 G, KJ/KG       -856205.1-858024.7-859844.6-861664.8-863485.4-865306.3-867127.5-868949.1
 S, KJ/(KG)(K)   181.9407 181.9740 182.0072 182.0404 182.0736 182.1067 182.1398 182.1728

 M, (1/n)           1.009    1.009    1.009    1.009    1.009    1.009    1.008    1.008
 (dLV/dLP)t      -1.00109 -1.00108 -1.00107 -1.00106 -1.00106 -1.00105 -1.00104 -1.00103
 (dLV/dLT)p        1.0118   1.0118   1.0117   1.0117   1.0117   1.0116   1.0116   1.0116
 Cp, KJ/(KG)(K)   22.0094  22.0155  22.0219  22.0288  22.0360  22.0436  22.0515  22.0598
 GAMMAs            1.6191   1.6188   1.6184   1.6181   1.6177   1.6174   1.6170   1.6166
 SON VEL,M/SEC     9392.8   9399.1   9405.3   9411.5   9417.6   9423.7   9429.8   9435.8

 TRANSPORT PROPERTIES (GASES ONLY)
   CONDUCTIVITY IN UNITS OF MILLIWATTS/(CM)(K)

 VISC,MILLIPOISE  0.69203  0.69295  0.69386  0.69477  0.69568  0.69660  0.69751  0.69842

  WITH EQUILIBRIUM REACTIONS

 Cp, KJ/(KG)(K)   22.0094  22.0155  22.0219  22.0288  22.0360  22.0436  22.0515  22.0598
 CONDUCTIVITY     22.3052  22.3272  22.3494  22.3719  22.3945  22.4173  22.4404  22.4636
 PRANDTL NUMBER    0.6829   0.6833   0.6837   0.6841   0.6845   0.6850   0.6854   0.6859

  WITH FROZEN REACTIONS

 Cp, KJ/(KG)(K)   20.6188  20.6192  20.6195  20.6198  20.6202  20.6206  20.6209  20.6213
 CONDUCTIVITY     21.4394  21.4689  21.4983  21.5278  21.5572  21.5867  21.6162  21.6456
 PRANDTL NUMBER    0.6655   0.6655   0.6655   0.6655   0.6654   0.6654   0.6654   0.6654

 MOLE FRACTIONS

 *e-              0.00029  0.00030  0.00030  0.00031  0.00031  0.00032  0.00033  0.00033
 *H               0.99847  0.99847  0.99847  0.99847  0.99847  0.99847  0.99847  0.99847
 *H+              0.00029  0.00030  0.00030  0.00031  0.00031  0.00032  0.00033  0.00033
 *H2              0.00095  0.00094  0.00092  0.00091  0.00090  0.00089  0.00088  0.00087

  * THERMODYNAMIC PROPERTIES FITTED TO 20000.K

 NOTE. WEIGHT FRACTION OF FUEL IN TOTAL FUELS AND OF OXIDANT IN TOTAL OXIDANTS









               THERMODYNAMIC EQUILIBRIUM PROPERTIES AT ASSIGNED

                           TEMPERATURE AND PRESSURE

 CASE =                

             REACTANT                    WT FRACTION      ENERGY      TEMP
                                          (SEE NOTE)     KJ/KG-MOL      K  
             H2                           1.0000000         0.000      0.000

 O/F=    0.00000  %FUEL=100.000000  R,EQ.RATIO= 0.000000  PHI,EQ.RATIO= 0.000000

 THERMODYNAMIC PROPERTIES

 P, BAR           0.60000  0.60000  0.60000  0.60000  0.60000  0.60000  0.67000  0.67000
 T, K             6690.00  6700.00  6710.00  6720.00  6730.00  6740.00  6600.00  6610.00
 RHO, KG/CU M    1.0878-3 1.0862-3 1.0845-3 1.0829-3 1.0813-3 1.0796-3 1.2316-3 1.2297-3
 H, KJ/KG        348185.9 348406.6 348627.4 348848.4 349069.4 349290.5 346129.4 346349.7
 U, KJ/KG        293028.5 293165.8 293303.2 293440.7 293578.3 293716.1 291729.6 291866.4
 G, KJ/KG       -870771.0-872593.2-874415.7-876238.6-878061.8-879885.4-848382.5-850192.6
 S, KJ/(KG)(K)   182.2058 182.2388 182.2717 182.3046 182.3375 182.3703 180.9867 181.0200

 M, (1/n)           1.008    1.008    1.008    1.008    1.008    1.008    1.009    1.009
 (dLV/dLP)t      -1.00103 -1.00102 -1.00101 -1.00100 -1.00100 -1.00099 -1.00120 -1.00119
 (dLV/dLT)p        1.0116   1.0116   1.0115   1.0115   1.0115   1.0115   1.0126   1.0125
 Cp, KJ/(KG)(K)   22.0685  22.0775  22.0869  22.0967  22.1068  22.1173  22.0249  22.0289
 GAMMAs            1.6162   1.6158   1.6154   1.6150   1.6145   1.6141   1.6195   1.6192
 SON VEL,M/SEC     9441.8   9447.7   9453.6   9459.5   9465.3   9471.1   9386.2   9392.6

 TRANSPORT PROPERTIES (GASES ONLY)
   CONDUCTIVITY IN UNITS OF MILLIWATTS/(CM)(K)

 VISC,MILLIPOISE  0.69933  0.70024  0.70115  0.70206  0.70297  0.70388  0.69139  0.69230

  WITH EQUILIBRIUM REACTIONS

 Cp, KJ/(KG)(K)   22.0685  22.0775  22.0869  22.0967  22.1068  22.1173  22.0249  22.0289
 CONDUCTIVITY     22.4871  22.5107  22.5345  22.5586  22.5828  22.6072  22.3636  22.3840
 PRANDTL NUMBER    0.6863   0.6868   0.6872   0.6877   0.6882   0.6886   0.6809   0.6813

  WITH FROZEN REACTIONS

 Cp, KJ/(KG)(K)   20.6217  20.6221  20.6225  20.6229  20.6233  20.6237  20.6182  20.6186
 CONDUCTIVITY     21.6751  21.7045  21.7340  21.7635  21.7929  21.8224  21.4138  21.4432
 PRANDTL NUMBER    0.6653   0.6653   0.6653   0.6653   0.6652   0.6652   0.6657   0.6657

 MOLE FRACTIONS

 *e-              0.00034  0.00035  0.00035  0.00036  0.00037  0.00037  0.00027  0.00027
 *H               0.99846  0.99846  0.99846  0.99845  0.99845  0.99845  0.99839  0.99839
 *H+              0.00034  0.00035  0.00035  0.00036  0.00037  0.00037  0.00027  0.00027
 *H2              0.00086  0.00085  0.00084  0.00082  0.00081  0.00080  0.00107  0.00106

  * THERMODYNAMIC PROPERTIES FITTED TO 20000.K

 NOTE. WEIGHT FRACTION OF FUEL IN TOTAL FUELS AND OF OXIDANT IN TOTAL OXIDANTS









               THERMODYNAMIC EQUILIBRIUM PROPERTIES AT ASSIGNED

                           TEMPERATURE AND PRESSURE

 CASE =                

             REACTANT                    WT FRACTION      ENERGY      TEMP
                                          (SEE NOTE)     KJ/KG-MOL      K  
             H2                           1.0000000         0.000      0.000

 O/F=    0.00000  %FUEL=100.000000  R,EQ.RATIO= 0.000000  PHI,EQ.RATIO= 0.000000

 THERMODYNAMIC PROPERTIES

 P, BAR           0.67000  0.67000  0.67000  0.67000  0.67000  0.67000  0.67000  0.67000
 T, K             6620.00  6630.00  6640.00  6650.00  6660.00  6670.00  6680.00  6690.00
 RHO, KG/CU M    1.2279-3 1.2260-3 1.2241-3 1.2222-3 1.2204-3 1.2185-3 1.2167-3 1.2148-3
 H, KJ/KG        346570.0 346790.4 347010.8 347231.2 347451.8 347672.3 347893.0 348113.7
 U, KJ/KG        292003.2 292140.1 292277.1 292414.1 292551.2 292688.3 292825.5 292962.7
 G, KJ/KG       -852002.9-853813.6-855624.7-857436.0-859247.7-861059.8-862872.1-864684.8
 S, KJ/(KG)(K)   181.0533 181.0866 181.1198 181.1530 181.1861 181.2192 181.2523 181.2853

 M, (1/n)           1.009    1.009    1.009    1.009    1.009    1.009    1.009    1.009
 (dLV/dLP)t      -1.00118 -1.00117 -1.00116 -1.00115 -1.00114 -1.00113 -1.00112 -1.00112
 (dLV/dLT)p        1.0125   1.0124   1.0124   1.0123   1.0123   1.0122   1.0122   1.0122
 Cp, KJ/(KG)(K)   22.0332  22.0379  22.0429  22.0484  22.0542  22.0604  22.0669  22.0739
 GAMMAs            1.6190   1.6187   1.6184   1.6181   1.6178   1.6175   1.6171   1.6168
 SON VEL,M/SEC     9399.1   9405.4   9411.8   9418.1   9424.3   9430.6   9436.7   9442.9

 TRANSPORT PROPERTIES (GASES ONLY)
   CONDUCTIVITY IN UNITS OF MILLIWATTS/(CM)(K)

 VISC,MILLIPOISE  0.69321  0.69413  0.69504  0.69595  0.69687  0.69778  0.69869  0.69960

  WITH EQUILIBRIUM REACTIONS

 Cp, KJ/(KG)(K)   22.0332  22.0379  22.0429  22.0484  22.0542  22.0604  22.0669  22.0739
 CONDUCTIVITY     22.4046  22.4255  22.4466  22.4680  22.4896  22.5114  22.5334  22.5557
 PRANDTL NUMBER    0.6817   0.6821   0.6825   0.6830   0.6834   0.6838   0.6842   0.6847

  WITH FROZEN REACTIONS

 Cp, KJ/(KG)(K)   20.6189  20.6192  20.6196  20.6199  20.6203  20.6206  20.6210  20.6214
 CONDUCTIVITY     21.4727  21.5021  21.5316  21.5610  21.5905  21.6199  21.6494  21.6789
 PRANDTL NUMBER    0.6657   0.6656   0.6656   0.6656   0.6656   0.6655   0.6655   0.6655

 MOLE FRACTIONS

 *e-              0.00028  0.00029  0.00029  0.00030  0.00030  0.00031  0.00032  0.00032
 *H               0.99839  0.99840  0.99840  0.99840  0.99840  0.99840  0.99840  0.99840
 *H+              0.00028  0.00029  0.00029  0.00030  0.00030  0.00031  0.00032  0.00032
 *H2              0.00104  0.00103  0.00102  0.00101  0.00099  0.00098  0.00097  0.00096

  * THERMODYNAMIC PROPERTIES FITTED TO 20000.K

 NOTE. WEIGHT FRACTION OF FUEL IN TOTAL FUELS AND OF OXIDANT IN TOTAL OXIDANTS









               THERMODYNAMIC EQUILIBRIUM PROPERTIES AT ASSIGNED

                           TEMPERATURE AND PRESSURE

 CASE =                

             REACTANT                    WT FRACTION      ENERGY      TEMP
                                          (SEE NOTE)     KJ/KG-MOL      K  
             H2                           1.0000000         0.000      0.000

 O/F=    0.00000  %FUEL=100.000000  R,EQ.RATIO= 0.000000  PHI,EQ.RATIO= 0.000000

 THERMODYNAMIC PROPERTIES

 P, BAR           0.67000  0.67000  0.67000  0.67000  0.67000  0.74000  0.74000  0.74000
 T, K             6700.00  6710.00  6720.00  6730.00  6740.00  6600.00  6610.00  6620.00
 RHO, KG/CU M    1.2130-3 1.2112-3 1.2094-3 1.2075-3 1.2057-3 1.3605-3 1.3584-3 1.3563-3
 H, KJ/KG        348334.4 348555.3 348776.2 348997.2 349218.3 346059.3 346279.8 346500.4
 U, KJ/KG        293100.1 293237.5 293375.0 293512.6 293650.2 291666.2 291803.2 291940.3
 G, KJ/KG       -866497.8-868311.2-870124.9-871938.9-873753.2-842977.0-844778.8-846580.8
 S, KJ/(KG)(K)   181.3182 181.3512 181.3841 181.4170 181.4498 180.1570 180.1904 180.2237

 M, (1/n)           1.009    1.009    1.009    1.009    1.008    1.009    1.009    1.009
 (dLV/dLP)t      -1.00111 -1.00110 -1.00109 -1.00108 -1.00107 -1.00131 -1.00130 -1.00128
 (dLV/dLT)p        1.0121   1.0121   1.0121   1.0121   1.0120   1.0134   1.0133   1.0132
 Cp, KJ/(KG)(K)   22.0812  22.0888  22.0968  22.1052  22.1140  22.0526  22.0548  22.0575
 GAMMAs            1.6164   1.6161   1.6157   1.6153   1.6149   1.6194   1.6192   1.6189
 SON VEL,M/SEC     9449.0   9455.0   9461.1   9467.1   9473.0   9385.2   9391.8   9398.4

 TRANSPORT PROPERTIES (GASES ONLY)
   CONDUCTIVITY IN UNITS OF MILLIWATTS/(CM)(K)

 VISC,MILLIPOISE  0.70052  0.70143  0.70234  0.70325  0.70416  0.69164  0.69255  0.69347

  WITH EQUILIBRIUM REACTIONS

 Cp, KJ/(KG)(K)   22.0812  22.0888  22.0968  22.1052  22.1140  22.0526  22.0548  22.0575
 CONDUCTIVITY     22.5781  22.6008  22.6237  22.6467  22.6700  22.4446  22.4636  22.4830
 PRANDTL NUMBER    0.6851   0.6855   0.6860   0.6864   0.6869   0.6796   0.6799   0.6803

  WITH FROZEN REACTIONS

 Cp, KJ/(KG)(K)   20.6218  20.6222  20.6225  20.6229  20.6233  20.6181  20.6184  20.6187
 CONDUCTIVITY     21.7083  21.7378  21.7673  21.7967  21.8262  21.4174  21.4468  21.4763
 PRANDTL NUMBER    0.6655   0.6654   0.6654   0.6654   0.6653   0.6658   0.6658   0.6658

 MOLE FRACTIONS

 *e-              0.00033  0.00033  0.00034  0.00035  0.00035  0.00026  0.00026  0.00027
 *H               0.99840  0.99840  0.99840  0.99839  0.99839  0.99830  0.99831  0.99831
 *H+              0.00033  0.00033  0.00034  0.00035  0.00035  0.00026  0.00026  0.00027
 *H2              0.00094  0.00093  0.00092  0.00091  0.00090  0.00118  0.00117  0.00115

  * THERMODYNAMIC PROPERTIES FITTED TO 20000.K

 NOTE. WEIGHT FRACTION OF FUEL IN TOTAL FUELS AND OF OXIDANT IN TOTAL OXIDANTS









               THERMODYNAMIC EQUILIBRIUM PROPERTIES AT ASSIGNED

                           TEMPERATURE AND PRESSURE

 CASE =                

             REACTANT                    WT FRACTION      ENERGY      TEMP
                                          (SEE NOTE)     KJ/KG-MOL      K  
             H2                           1.0000000         0.000      0.000

 O/F=    0.00000  %FUEL=100.000000  R,EQ.RATIO= 0.000000  PHI,EQ.RATIO= 0.000000

 THERMODYNAMIC PROPERTIES

 P, BAR           0.74000  0.74000  0.74000  0.74000  0.74000  0.74000  0.74000  0.74000
 T, K             6630.00  6640.00  6650.00  6660.00  6670.00  6680.00  6690.00  6700.00
 RHO, KG/CU M    1.3542-3 1.3522-3 1.3501-3 1.3481-3 1.3460-3 1.3440-3 1.3419-3 1.3399-3
 H, KJ/KG        346720.9 346941.6 347162.2 347382.9 347603.7 347824.5 348045.3 348266.2
 U, KJ/KG        292077.3 292214.5 292351.6 292488.8 292626.1 292763.4 292900.7 293038.2
 G, KJ/KG       -848383.2-850186.0-851989.0-853792.4-855596.2-857400.2-859204.6-861009.4
 S, KJ/(KG)(K)   180.2570 180.2903 180.3235 180.3567 180.3898 180.4229 180.4559 180.4889

 M, (1/n)           1.009    1.009    1.009    1.009    1.009    1.009    1.009    1.009
 (dLV/dLP)t      -1.00127 -1.00126 -1.00125 -1.00124 -1.00123 -1.00122 -1.00121 -1.00120
 (dLV/dLT)p        1.0132   1.0131   1.0130   1.0130   1.0129   1.0128   1.0128   1.0127
 Cp, KJ/(KG)(K)   22.0605  22.0639  22.0677  22.0719  22.0765  22.0814  22.0867  22.0924
 GAMMAs            1.6187   1.6185   1.6182   1.6180   1.6177   1.6174   1.6171   1.6168
 SON VEL,M/SEC     9404.9   9411.4   9417.8   9424.2   9430.6   9436.9   9443.2   9449.5

 TRANSPORT PROPERTIES (GASES ONLY)
   CONDUCTIVITY IN UNITS OF MILLIWATTS/(CM)(K)

 VISC,MILLIPOISE  0.69438  0.69529  0.69621  0.69712  0.69803  0.69895  0.69986  0.70077

  WITH EQUILIBRIUM REACTIONS

 Cp, KJ/(KG)(K)   22.0605  22.0639  22.0677  22.0719  22.0765  22.0814  22.0867  22.0924
 CONDUCTIVITY     22.5026  22.5224  22.5425  22.5629  22.5835  22.6043  22.6253  22.6466
 PRANDTL NUMBER    0.6807   0.6811   0.6815   0.6820   0.6824   0.6828   0.6832   0.6836

  WITH FROZEN REACTIONS

 Cp, KJ/(KG)(K)   20.6190  20.6194  20.6197  20.6201  20.6204  20.6208  20.6211  20.6215
 CONDUCTIVITY     21.5057  21.5352  21.5646  21.5941  21.6235  21.6530  21.6825  21.7119
 PRANDTL NUMBER    0.6658   0.6657   0.6657   0.6657   0.6657   0.6656   0.6656   0.6656

 MOLE FRACTIONS

 *e-              0.00027  0.00028  0.00028  0.00029  0.00029  0.00030  0.00031  0.00031
 *H               0.99832  0.99832  0.99832  0.99833  0.99833  0.99833  0.99833  0.99833
 *H+              0.00027  0.00028  0.00028  0.00029  0.00029  0.00030  0.00031  0.00031
 *H2              0.00114  0.00112  0.00111  0.00110  0.00108  0.00107  0.00106  0.00104

  * THERMODYNAMIC PROPERTIES FITTED TO 20000.K

 NOTE. WEIGHT FRACTION OF FUEL IN TOTAL FUELS AND OF OXIDANT IN TOTAL OXIDANTS









               THERMODYNAMIC EQUILIBRIUM PROPERTIES AT ASSIGNED

                           TEMPERATURE AND PRESSURE

 CASE =                

             REACTANT                    WT FRACTION      ENERGY      TEMP
                                          (SEE NOTE)     KJ/KG-MOL      K  
             H2                           1.0000000         0.000      0.000

 O/F=    0.00000  %FUEL=100.000000  R,EQ.RATIO= 0.000000  PHI,EQ.RATIO= 0.000000

 THERMODYNAMIC PROPERTIES

 P, BAR           0.74000  0.74000  0.74000  0.74000  0.82500  0.82500  0.82500  0.82500
 T, K             6710.00  6720.00  6730.00  6740.00  6600.00  6610.00  6620.00  6630.00
 RHO, KG/CU M    1.3379-3 1.3359-3 1.3339-3 1.3318-3 1.5170-3 1.5146-3 1.5123-3 1.5100-3
 H, KJ/KG        348487.1 348708.2 348929.2 349150.4 345977.4 346198.3 346419.2 346640.2
 U, KJ/KG        293175.6 293313.2 293450.8 293588.5 291592.4 291729.8 291867.1 292004.5
 G, KJ/KG       -862814.4-864619.8-866425.5-868231.6-837063.1-838855.8-840648.8-842442.1
 S, KJ/(KG)(K)   180.5218 180.5548 180.5876 180.6205 179.2486 179.2820 179.3154 179.3488

 M, (1/n)           1.009    1.009    1.009    1.009    1.009    1.009    1.009    1.009
 (dLV/dLP)t      -1.00119 -1.00118 -1.00117 -1.00116 -1.00144 -1.00142 -1.00141 -1.00139
 (dLV/dLT)p        1.0127   1.0127   1.0126   1.0126   1.0143   1.0142   1.0141   1.0141
 Cp, KJ/(KG)(K)   22.0984  22.1048  22.1116  22.1188  22.0927  22.0930  22.0938  22.0949
 GAMMAs            1.6165   1.6161   1.6158   1.6155   1.6189   1.6188   1.6186   1.6185
 SON VEL,M/SEC     9455.7   9461.8   9468.0   9474.0   9383.3   9390.1   9396.8   9403.5

 TRANSPORT PROPERTIES (GASES ONLY)
   CONDUCTIVITY IN UNITS OF MILLIWATTS/(CM)(K)

 VISC,MILLIPOISE  0.70168  0.70259  0.70351  0.70442  0.69193  0.69284  0.69376  0.69467

  WITH EQUILIBRIUM REACTIONS

 Cp, KJ/(KG)(K)   22.0984  22.1048  22.1116  22.1188  22.0927  22.0930  22.0938  22.0949
 CONDUCTIVITY     22.6681  22.6899  22.7118  22.7340  22.5438  22.5613  22.5791  22.5971
 PRANDTL NUMBER    0.6840   0.6845   0.6849   0.6854   0.6781   0.6785   0.6788   0.6792

  WITH FROZEN REACTIONS

 Cp, KJ/(KG)(K)   20.6219  20.6223  20.6227  20.6231  20.6179  20.6182  20.6185  20.6188
 CONDUCTIVITY     21.7414  21.7709  21.8003  21.8298  21.4217  21.4511  21.4805  21.5099
 PRANDTL NUMBER    0.6656   0.6655   0.6655   0.6655   0.6660   0.6659   0.6659   0.6659

 MOLE FRACTIONS

 *e-              0.00032  0.00032  0.00033  0.00034  0.00024  0.00025  0.00025  0.00026
 *H               0.99833  0.99833  0.99833  0.99833  0.99820  0.99820  0.99821  0.99822
 *H+              0.00032  0.00032  0.00033  0.00034  0.00024  0.00025  0.00025  0.00026
 *H2              0.00103  0.00102  0.00100  0.00099  0.00132  0.00130  0.00129  0.00127

  * THERMODYNAMIC PROPERTIES FITTED TO 20000.K

 NOTE. WEIGHT FRACTION OF FUEL IN TOTAL FUELS AND OF OXIDANT IN TOTAL OXIDANTS









               THERMODYNAMIC EQUILIBRIUM PROPERTIES AT ASSIGNED

                           TEMPERATURE AND PRESSURE

 CASE =                

             REACTANT                    WT FRACTION      ENERGY      TEMP
                                          (SEE NOTE)     KJ/KG-MOL      K  
             H2                           1.0000000         0.000      0.000

 O/F=    0.00000  %FUEL=100.000000  R,EQ.RATIO= 0.000000  PHI,EQ.RATIO= 0.000000

 THERMODYNAMIC PROPERTIES

 P, BAR           0.82500  0.82500  0.82500  0.82500  0.82500  0.82500  0.82500  0.82500
 T, K             6640.00  6650.00  6660.00  6670.00  6680.00  6690.00  6700.00  6710.00
 RHO, KG/CU M    1.5077-3 1.5054-3 1.5031-3 1.5008-3 1.4985-3 1.4963-3 1.4940-3 1.4918-3
 H, KJ/KG        346861.1 347082.1 347303.1 347524.1 347745.2 347966.3 348187.4 348408.5
 U, KJ/KG        292141.9 292279.3 292416.8 292554.2 292691.7 292829.3 292966.9 293104.5
 G, KJ/KG       -844235.7-846029.7-847824.1-849618.7-851413.7-853209.0-855004.6-856800.6
 S, KJ/(KG)(K)   179.3821 179.4153 179.4485 179.4817 179.5148 179.5479 179.5809 179.6139

 M, (1/n)           1.009    1.009    1.009    1.009    1.009    1.009    1.009    1.009
 (dLV/dLP)t      -1.00138 -1.00137 -1.00136 -1.00134 -1.00133 -1.00132 -1.00131 -1.00130
 (dLV/dLT)p        1.0140   1.0139   1.0138   1.0137   1.0137   1.0136   1.0135   1.0135
 Cp, KJ/(KG)(K)   22.0964  22.0984  22.1007  22.1034  22.1065  22.1099  22.1138  22.1180
 GAMMAs            1.6183   1.6181   1.6179   1.6177   1.6174   1.6172   1.6169   1.6167
 SON VEL,M/SEC     9410.2   9416.8   9423.3   9429.9   9436.4   9442.8   9449.2   9455.6

 TRANSPORT PROPERTIES (GASES ONLY)
   CONDUCTIVITY IN UNITS OF MILLIWATTS/(CM)(K)

 VISC,MILLIPOISE  0.69558  0.69650  0.69741  0.69832  0.69924  0.70015  0.70106  0.70198

  WITH EQUILIBRIUM REACTIONS

 Cp, KJ/(KG)(K)   22.0964  22.0984  22.1007  22.1034  22.1065  22.1099  22.1138  22.1180
 CONDUCTIVITY     22.6154  22.6340  22.6529  22.6720  22.6914  22.7111  22.7309  22.7511
 PRANDTL NUMBER    0.6796   0.6800   0.6804   0.6808   0.6812   0.6816   0.6820   0.6824

  WITH FROZEN REACTIONS

 Cp, KJ/(KG)(K)   20.6191  20.6195  20.6198  20.6202  20.6205  20.6209  20.6213  20.6216
 CONDUCTIVITY     21.5394  21.5688  21.5983  21.6277  21.6572  21.6866  21.7161  21.7456
 PRANDTL NUMBER    0.6659   0.6658   0.6658   0.6658   0.6658   0.6657   0.6657   0.6657

 MOLE FRACTIONS

 *e-              0.00026  0.00027  0.00027  0.00028  0.00028  0.00029  0.00030  0.00030
 *H               0.99822  0.99823  0.99823  0.99824  0.99824  0.99824  0.99825  0.99825
 *H+              0.00026  0.00027  0.00027  0.00028  0.00028  0.00029  0.00030  0.00030
 *H2              0.00125  0.00124  0.00122  0.00121  0.00119  0.00118  0.00116  0.00115

  * THERMODYNAMIC PROPERTIES FITTED TO 20000.K

 NOTE. WEIGHT FRACTION OF FUEL IN TOTAL FUELS AND OF OXIDANT IN TOTAL OXIDANTS









               THERMODYNAMIC EQUILIBRIUM PROPERTIES AT ASSIGNED

                           TEMPERATURE AND PRESSURE

 CASE =                

             REACTANT                    WT FRACTION      ENERGY      TEMP
                                          (SEE NOTE)     KJ/KG-MOL      K  
             H2                           1.0000000         0.000      0.000

 O/F=    0.00000  %FUEL=100.000000  R,EQ.RATIO= 0.000000  PHI,EQ.RATIO= 0.000000

 THERMODYNAMIC PROPERTIES

 P, BAR           0.82500  0.82500  0.82500  0.91000  0.91000  0.91000  0.91000  0.91000
 T, K             6720.00  6730.00  6740.00  6600.00  6610.00  6620.00  6630.00  6640.00
 RHO, KG/CU M    1.4895-3 1.4873-3 1.4850-3 1.6735-3 1.6709-3 1.6684-3 1.6658-3 1.6633-3
 H, KJ/KG        348629.7 348851.0 349072.3 345898.4 346119.7 346341.1 346562.5 346783.8
 U, KJ/KG        293242.2 293379.9 293517.7 291521.4 291659.1 291796.8 291934.6 292072.3
 G, KJ/KG       -858596.9-860393.6-862190.5-831730.5-833514.9-835299.7-837084.8-838870.3
 S, KJ/(KG)(K)   179.6468 179.6797 179.7126 178.4286 178.4621 178.4956 178.5290 178.5624

 M, (1/n)           1.009    1.009    1.009    1.009    1.009    1.009    1.009    1.009
 (dLV/dLP)t      -1.00128 -1.00127 -1.00126 -1.00156 -1.00155 -1.00153 -1.00152 -1.00150
 (dLV/dLT)p        1.0134   1.0133   1.0133   1.0153   1.0152   1.0151   1.0150   1.0149
 Cp, KJ/(KG)(K)   22.1226  22.1276  22.1330  22.1383  22.1369  22.1358  22.1351  22.1349
 GAMMAs            1.6164   1.6161   1.6158   1.6183   1.6182   1.6181   1.6180   1.6179
 SON VEL,M/SEC     9461.9   9468.2   9474.4   9380.9   9387.8   9394.7   9401.5   9408.3

 TRANSPORT PROPERTIES (GASES ONLY)
   CONDUCTIVITY IN UNITS OF MILLIWATTS/(CM)(K)

 VISC,MILLIPOISE  0.70289  0.70380  0.70471  0.69220  0.69312  0.69403  0.69494  0.69586

  WITH EQUILIBRIUM REACTIONS

 Cp, KJ/(KG)(K)   22.1226  22.1276  22.1330  22.1383  22.1369  22.1358  22.1351  22.1349
 CONDUCTIVITY     22.7715  22.7921  22.8129  22.6438  22.6597  22.6759  22.6925  22.7093
 PRANDTL NUMBER    0.6829   0.6833   0.6837   0.6768   0.6771   0.6775   0.6779   0.6783

  WITH FROZEN REACTIONS

 Cp, KJ/(KG)(K)   20.6220  20.6224  20.6228  20.6177  20.6180  20.6183  20.6187  20.6190
 CONDUCTIVITY     21.7750  21.8045  21.8340  21.4258  21.4552  21.4846  21.5140  21.5435
 PRANDTL NUMBER    0.6657   0.6656   0.6656   0.6661   0.6661   0.6660   0.6660   0.6660

 MOLE FRACTIONS

 *e-              0.00031  0.00031  0.00032  0.00023  0.00024  0.00024  0.00025  0.00025
 *H               0.99825  0.99825  0.99825  0.99808  0.99809  0.99810  0.99811  0.99812
 *H+              0.00031  0.00031  0.00032  0.00023  0.00024  0.00024  0.00025  0.00025
 *H2              0.00113  0.00112  0.00111  0.00145  0.00144  0.00142  0.00140  0.00138

  * THERMODYNAMIC PROPERTIES FITTED TO 20000.K

 NOTE. WEIGHT FRACTION OF FUEL IN TOTAL FUELS AND OF OXIDANT IN TOTAL OXIDANTS









               THERMODYNAMIC EQUILIBRIUM PROPERTIES AT ASSIGNED

                           TEMPERATURE AND PRESSURE

 CASE =                

             REACTANT                    WT FRACTION      ENERGY      TEMP
                                          (SEE NOTE)     KJ/KG-MOL      K  
             H2                           1.0000000         0.000      0.000

 O/F=    0.00000  %FUEL=100.000000  R,EQ.RATIO= 0.000000  PHI,EQ.RATIO= 0.000000

 THERMODYNAMIC PROPERTIES

 P, BAR           0.91000  0.91000  0.91000  0.91000  0.91000  0.91000  0.91000  0.91000
 T, K             6650.00  6660.00  6670.00  6680.00  6690.00  6700.00  6710.00  6720.00
 RHO, KG/CU M    1.6607-3 1.6582-3 1.6557-3 1.6532-3 1.6507-3 1.6482-3 1.6457-3 1.6432-3
 H, KJ/KG        347005.2 347226.5 347447.9 347669.2 347890.6 348112.0 348333.5 348554.9
 U, KJ/KG        292210.0 292347.7 292485.5 292623.3 292761.1 292898.9 293036.7 293174.6
 G, KJ/KG       -840656.1-842442.2-844228.7-846015.4-847802.6-849590.0-851377.8-853165.9
 S, KJ/(KG)(K)   178.5957 178.6289 178.6621 178.6953 178.7284 178.7615 178.7945 178.8275

 M, (1/n)           1.009    1.009    1.009    1.009    1.009    1.009    1.009    1.009
 (dLV/dLP)t      -1.00149 -1.00147 -1.00146 -1.00145 -1.00143 -1.00142 -1.00141 -1.00139
 (dLV/dLT)p        1.0148   1.0147   1.0146   1.0145   1.0144   1.0143   1.0142   1.0142
 Cp, KJ/(KG)(K)   22.1350  22.1356  22.1366  22.1379  22.1397  22.1418  22.1443  22.1472
 GAMMAs            1.6177   1.6176   1.6174   1.6172   1.6170   1.6168   1.6166   1.6164
 SON VEL,M/SEC     9415.1   9421.8   9428.5   9435.1   9441.7   9448.3   9454.8   9461.3

 TRANSPORT PROPERTIES (GASES ONLY)
   CONDUCTIVITY IN UNITS OF MILLIWATTS/(CM)(K)

 VISC,MILLIPOISE  0.69677  0.69769  0.69860  0.69951  0.70042  0.70134  0.70225  0.70316

  WITH EQUILIBRIUM REACTIONS

 Cp, KJ/(KG)(K)   22.1350  22.1356  22.1366  22.1379  22.1397  22.1418  22.1443  22.1472
 CONDUCTIVITY     22.7264  22.7438  22.7615  22.7794  22.7977  22.8162  22.8350  22.8540
 PRANDTL NUMBER    0.6786   0.6790   0.6794   0.6798   0.6802   0.6806   0.6810   0.6814

  WITH FROZEN REACTIONS

 Cp, KJ/(KG)(K)   20.6193  20.6196  20.6200  20.6203  20.6207  20.6210  20.6214  20.6218
 CONDUCTIVITY     21.5729  21.6023  21.6317  21.6612  21.6906  21.7201  21.7495  21.7790
 PRANDTL NUMBER    0.6660   0.6659   0.6659   0.6659   0.6659   0.6658   0.6658   0.6658

 MOLE FRACTIONS

 *e-              0.00026  0.00026  0.00027  0.00027  0.00028  0.00028  0.00029  0.00029
 *H               0.99812  0.99813  0.99814  0.99814  0.99815  0.99815  0.99816  0.99816
 *H+              0.00026  0.00026  0.00027  0.00027  0.00028  0.00028  0.00029  0.00029
 *H2              0.00136  0.00135  0.00133  0.00131  0.00130  0.00128  0.00127  0.00125

  * THERMODYNAMIC PROPERTIES FITTED TO 20000.K

 NOTE. WEIGHT FRACTION OF FUEL IN TOTAL FUELS AND OF OXIDANT IN TOTAL OXIDANTS









               THERMODYNAMIC EQUILIBRIUM PROPERTIES AT ASSIGNED

                           TEMPERATURE AND PRESSURE

 CASE =                

             REACTANT                    WT FRACTION      ENERGY      TEMP
                                          (SEE NOTE)     KJ/KG-MOL      K  
             H2                           1.0000000         0.000      0.000

 O/F=    0.00000  %FUEL=100.000000  R,EQ.RATIO= 0.000000  PHI,EQ.RATIO= 0.000000

 THERMODYNAMIC PROPERTIES

 P, BAR           0.91000  0.91000   1.0000   1.0000   1.0000   1.0000   1.0000   1.0000
 T, K             6730.00  6740.00  6600.00  6610.00  6620.00  6630.00  6640.00  6650.00
 RHO, KG/CU M    1.6407-3 1.6382-3 1.8393-3 1.8365-3 1.8336-3 1.8308-3 1.8280-3 1.8252-3
 H, KJ/KG        348776.4 348997.9 345817.1 346039.0 346260.9 346482.7 346704.5 346926.3
 U, KJ/KG        293312.5 293450.5 291448.5 291586.7 291724.8 291863.0 292001.1 292139.2
 G, KJ/KG       -854954.3-856743.1-826602.5-828379.1-830156.0-831933.2-833710.8-835488.7
 S, KJ/(KG)(K)   178.8604 178.8933 177.6393 177.6729 177.7065 177.7400 177.7734 177.8068

 M, (1/n)           1.009    1.009    1.009    1.009    1.009    1.009    1.009    1.009
 (dLV/dLP)t      -1.00138 -1.00137 -1.00170 -1.00168 -1.00167 -1.00165 -1.00163 -1.00162
 (dLV/dLT)p        1.0141   1.0140   1.0164   1.0162   1.0161   1.0160   1.0159   1.0157
 Cp, KJ/(KG)(K)   22.1505  22.1542  22.1913  22.1880  22.1851  22.1826  22.1806  22.1790
 GAMMAs            1.6161   1.6159   1.6175   1.6175   1.6174   1.6174   1.6173   1.6172
 SON VEL,M/SEC     9467.7   9474.1   9377.8   9384.9   9391.9   9398.9   9405.9   9412.8

 TRANSPORT PROPERTIES (GASES ONLY)
   CONDUCTIVITY IN UNITS OF MILLIWATTS/(CM)(K)

 VISC,MILLIPOISE  0.70407  0.70499  0.69248  0.69340  0.69431  0.69522  0.69614  0.69705

  WITH EQUILIBRIUM REACTIONS

 Cp, KJ/(KG)(K)   22.1505  22.1542  22.1913  22.1880  22.1851  22.1826  22.1806  22.1790
 CONDUCTIVITY     22.8733  22.8929  22.7503  22.7645  22.7791  22.7940  22.8093  22.8248
 PRANDTL NUMBER    0.6818   0.6822   0.6755   0.6758   0.6762   0.6766   0.6769   0.6773

  WITH FROZEN REACTIONS

 Cp, KJ/(KG)(K)   20.6222  20.6225  20.6176  20.6179  20.6182  20.6185  20.6188  20.6192
 CONDUCTIVITY     21.8085  21.8379  21.4301  21.4595  21.4889  21.5183  21.5477  21.5771
 PRANDTL NUMBER    0.6658   0.6658   0.6662   0.6662   0.6662   0.6662   0.6661   0.6661

 MOLE FRACTIONS

 *e-              0.00030  0.00030  0.00022  0.00022  0.00023  0.00023  0.00024  0.00024
 *H               0.99817  0.99817  0.99796  0.99797  0.99798  0.99799  0.99800  0.99801
 *H+              0.00030  0.00030  0.00022  0.00022  0.00023  0.00023  0.00024  0.00024
 *H2              0.00124  0.00122  0.00160  0.00158  0.00156  0.00154  0.00152  0.00150

  * THERMODYNAMIC PROPERTIES FITTED TO 20000.K

 NOTE. WEIGHT FRACTION OF FUEL IN TOTAL FUELS AND OF OXIDANT IN TOTAL OXIDANTS









               THERMODYNAMIC EQUILIBRIUM PROPERTIES AT ASSIGNED

                           TEMPERATURE AND PRESSURE

 CASE =                

             REACTANT                    WT FRACTION      ENERGY      TEMP
                                          (SEE NOTE)     KJ/KG-MOL      K  
             H2                           1.0000000         0.000      0.000

 O/F=    0.00000  %FUEL=100.000000  R,EQ.RATIO= 0.000000  PHI,EQ.RATIO= 0.000000

 THERMODYNAMIC PROPERTIES

 P, BAR            1.0000   1.0000   1.0000   1.0000   1.0000   1.0000   1.0000   1.0000
 T, K             6660.00  6670.00  6680.00  6690.00  6700.00  6710.00  6720.00  6730.00
 RHO, KG/CU M    1.8225-3 1.8197-3 1.8169-3 1.8142-3 1.8114-3 1.8087-3 1.8059-3 1.8032-3
 H, KJ/KG        347148.1 347369.9 347591.7 347813.4 348035.2 348257.0 348478.8 348700.5
 U, KJ/KG        292277.3 292415.4 292553.5 292691.6 292829.7 292967.9 293106.0 293244.2
 G, KJ/KG       -837266.9-839045.5-840824.4-842603.6-844383.2-846163.1-847943.3-849723.9
 S, KJ/(KG)(K)   177.8401 177.8734 177.9066 177.9398 177.9729 178.0060 178.0390 178.0720

 M, (1/n)           1.009    1.009    1.009    1.009    1.009    1.009    1.009    1.009
 (dLV/dLP)t      -1.00160 -1.00158 -1.00157 -1.00155 -1.00154 -1.00152 -1.00151 -1.00149
 (dLV/dLT)p        1.0156   1.0155   1.0154   1.0153   1.0152   1.0151   1.0150   1.0149
 Cp, KJ/(KG)(K)   22.1778  22.1770  22.1766  22.1766  22.1770  22.1779  22.1791  22.1807
 GAMMAs            1.6171   1.6169   1.6168   1.6167   1.6165   1.6163   1.6162   1.6160
 SON VEL,M/SEC     9419.6   9426.5   9433.3   9440.0   9446.7   9453.4   9460.0   9466.6

 TRANSPORT PROPERTIES (GASES ONLY)
   CONDUCTIVITY IN UNITS OF MILLIWATTS/(CM)(K)

 VISC,MILLIPOISE  0.69796  0.69888  0.69979  0.70070  0.70161  0.70253  0.70344  0.70435

  WITH EQUILIBRIUM REACTIONS

 Cp, KJ/(KG)(K)   22.1778  22.1770  22.1766  22.1766  22.1770  22.1779  22.1791  22.1807
 CONDUCTIVITY     22.8407  22.8569  22.8734  22.8901  22.9072  22.9246  22.9422  22.9601
 PRANDTL NUMBER    0.6777   0.6781   0.6785   0.6789   0.6792   0.6796   0.6800   0.6804

  WITH FROZEN REACTIONS

 Cp, KJ/(KG)(K)   20.6195  20.6198  20.6202  20.6205  20.6209  20.6212  20.6216  20.6220
 CONDUCTIVITY     21.6065  21.6359  21.6653  21.6947  21.7242  21.7536  21.7831  21.8125
 PRANDTL NUMBER    0.6661   0.6661   0.6660   0.6660   0.6660   0.6660   0.6659   0.6659

 MOLE FRACTIONS

 *e-              0.00025  0.00025  0.00026  0.00026  0.00027  0.00027  0.00028  0.00028
 *H               0.99802  0.99803  0.99804  0.99805  0.99805  0.99806  0.99807  0.99807
 *H+              0.00025  0.00025  0.00026  0.00026  0.00027  0.00027  0.00028  0.00028
 *H2              0.00148  0.00146  0.00144  0.00143  0.00141  0.00139  0.00137  0.00136

  * THERMODYNAMIC PROPERTIES FITTED TO 20000.K

 NOTE. WEIGHT FRACTION OF FUEL IN TOTAL FUELS AND OF OXIDANT IN TOTAL OXIDANTS









               THERMODYNAMIC EQUILIBRIUM PROPERTIES AT ASSIGNED

                           TEMPERATURE AND PRESSURE

 CASE =                

             REACTANT                    WT FRACTION      ENERGY      TEMP
                                          (SEE NOTE)     KJ/KG-MOL      K  
             H2                           1.0000000         0.000      0.000

 O/F=    0.00000  %FUEL=100.000000  R,EQ.RATIO= 0.000000  PHI,EQ.RATIO= 0.000000

 THERMODYNAMIC PROPERTIES

 P, BAR            1.0000   1.1000   1.1000   1.1000   1.1000   1.1000   1.1000   1.1000
 T, K             6740.00  6600.00  6610.00  6620.00  6630.00  6640.00  6650.00  6660.00
 RHO, KG/CU M    1.8005-3 2.0236-3 2.0205-3 2.0173-3 2.0143-3 2.0112-3 2.0081-3 2.0050-3
 H, KJ/KG        348922.4 345729.2 345951.7 346174.2 346396.6 346619.0 346841.3 347063.6
 U, KJ/KG        293382.4 291369.8 291508.5 291647.2 291785.8 291924.4 292063.0 292201.5
 G, KJ/KG       -851504.7-821421.1-823189.7-824958.6-826727.8-828497.4-830267.3-832037.6
 S, KJ/(KG)(K)   178.1049 176.8409 176.8746 176.9083 176.9418 176.9754 177.0088 177.0422

 M, (1/n)           1.009    1.009    1.009    1.009    1.009    1.009    1.009    1.009
 (dLV/dLP)t      -1.00148 -1.00185 -1.00183 -1.00181 -1.00180 -1.00178 -1.00176 -1.00174
 (dLV/dLT)p        1.0148   1.0176   1.0174   1.0173   1.0171   1.0170   1.0168   1.0167
 Cp, KJ/(KG)(K)   22.1827  22.2545  22.2493  22.2444  22.2401  22.2361  22.2326  22.2295
 GAMMAs            1.6158   1.6165   1.6165   1.6165   1.6165   1.6164   1.6164   1.6163
 SON VEL,M/SEC     9473.1   9373.9   9381.2   9388.4   9395.5   9402.6   9409.7   9416.7

 TRANSPORT PROPERTIES (GASES ONLY)
   CONDUCTIVITY IN UNITS OF MILLIWATTS/(CM)(K)

 VISC,MILLIPOISE  0.70526  0.69278  0.69370  0.69461  0.69552  0.69643  0.69735  0.69826

  WITH EQUILIBRIUM REACTIONS

 Cp, KJ/(KG)(K)   22.1827  22.2545  22.2493  22.2444  22.2401  22.2361  22.2326  22.2295
 CONDUCTIVITY     22.9783  22.8691  22.8816  22.8944  22.9075  22.9210  22.9349  22.9490
 PRANDTL NUMBER    0.6808   0.6742   0.6745   0.6749   0.6753   0.6756   0.6760   0.6764

  WITH FROZEN REACTIONS

 Cp, KJ/(KG)(K)   20.6223  20.6175  20.6178  20.6181  20.6184  20.6187  20.6190  20.6194
 CONDUCTIVITY     21.8420  21.4348  21.4641  21.4935  21.5228  21.5522  21.5816  21.6110
 PRANDTL NUMBER    0.6659   0.6664   0.6663   0.6663   0.6663   0.6663   0.6662   0.6662

 MOLE FRACTIONS

 *e-              0.00029  0.00021  0.00021  0.00022  0.00022  0.00023  0.00023  0.00024
 *H               0.99808  0.99782  0.99784  0.99785  0.99786  0.99787  0.99789  0.99790
 *H+              0.00029  0.00021  0.00021  0.00022  0.00022  0.00023  0.00023  0.00024
 *H2              0.00134  0.00176  0.00173  0.00171  0.00169  0.00167  0.00165  0.00163

  * THERMODYNAMIC PROPERTIES FITTED TO 20000.K

 NOTE. WEIGHT FRACTION OF FUEL IN TOTAL FUELS AND OF OXIDANT IN TOTAL OXIDANTS









               THERMODYNAMIC EQUILIBRIUM PROPERTIES AT ASSIGNED

                           TEMPERATURE AND PRESSURE

 CASE =                

             REACTANT                    WT FRACTION      ENERGY      TEMP
                                          (SEE NOTE)     KJ/KG-MOL      K  
             H2                           1.0000000         0.000      0.000

 O/F=    0.00000  %FUEL=100.000000  R,EQ.RATIO= 0.000000  PHI,EQ.RATIO= 0.000000

 THERMODYNAMIC PROPERTIES

 P, BAR            1.1000   1.1000   1.1000   1.1000   1.1000   1.1000   1.1000   1.1000
 T, K             6670.00  6680.00  6690.00  6700.00  6710.00  6720.00  6730.00  6740.00
 RHO, KG/CU M    2.0020-3 1.9989-3 1.9959-3 1.9929-3 1.9898-3 1.9868-3 1.9838-3 1.9808-3
 H, KJ/KG        347285.9 347508.2 347730.4 347952.6 348174.8 348397.0 348619.2 348841.4
 U, KJ/KG        292340.1 292478.6 292617.1 292755.6 292894.1 293032.6 293171.1 293309.6
 G, KJ/KG       -833808.2-835579.1-837350.3-839121.9-840893.8-842666.1-844438.7-846211.6
 S, KJ/(KG)(K)   177.0756 177.1089 177.1421 177.1753 177.2084 177.2415 177.2746 177.3076

 M, (1/n)           1.009    1.009    1.009    1.009    1.009    1.009    1.009    1.009
 (dLV/dLP)t      -1.00172 -1.00170 -1.00169 -1.00167 -1.00165 -1.00164 -1.00162 -1.00161
 (dLV/dLT)p        1.0166   1.0164   1.0163   1.0162   1.0161   1.0160   1.0159   1.0158
 Cp, KJ/(KG)(K)   22.2269  22.2247  22.2228  22.2215  22.2205  22.2199  22.2198  22.2200
 GAMMAs            1.6163   1.6162   1.6161   1.6160   1.6159   1.6157   1.6156   1.6154
 SON VEL,M/SEC     9423.7   9430.7   9437.6   9444.4   9451.2   9458.0   9464.8   9471.4

 TRANSPORT PROPERTIES (GASES ONLY)
   CONDUCTIVITY IN UNITS OF MILLIWATTS/(CM)(K)

 VISC,MILLIPOISE  0.69917  0.70008  0.70099  0.70191  0.70282  0.70373  0.70464  0.70556

  WITH EQUILIBRIUM REACTIONS

 Cp, KJ/(KG)(K)   22.2269  22.2247  22.2228  22.2215  22.2205  22.2199  22.2198  22.2200
 CONDUCTIVITY     22.9636  22.9784  22.9936  23.0091  23.0248  23.0409  23.0573  23.0740
 PRANDTL NUMBER    0.6767   0.6771   0.6775   0.6779   0.6783   0.6787   0.6790   0.6794

  WITH FROZEN REACTIONS

 Cp, KJ/(KG)(K)   20.6197  20.6200  20.6204  20.6207  20.6211  20.6214  20.6218  20.6221
 CONDUCTIVITY     21.6404  21.6698  21.6992  21.7286  21.7580  21.7875  21.8169  21.8463
 PRANDTL NUMBER    0.6662   0.6662   0.6661   0.6661   0.6661   0.6661   0.6660   0.6660

 MOLE FRACTIONS

 *e-              0.00024  0.00025  0.00025  0.00026  0.00026  0.00027  0.00027  0.00028
 *H               0.99791  0.99792  0.99793  0.99794  0.99795  0.99796  0.99796  0.99797
 *H+              0.00024  0.00025  0.00025  0.00026  0.00026  0.00027  0.00027  0.00028
 *H2              0.00161  0.00159  0.00157  0.00155  0.00153  0.00151  0.00149  0.00147

  * THERMODYNAMIC PROPERTIES FITTED TO 20000.K

 NOTE. WEIGHT FRACTION OF FUEL IN TOTAL FUELS AND OF OXIDANT IN TOTAL OXIDANTS









               THERMODYNAMIC EQUILIBRIUM PROPERTIES AT ASSIGNED

                           TEMPERATURE AND PRESSURE

 CASE =                

             REACTANT                    WT FRACTION      ENERGY      TEMP
                                          (SEE NOTE)     KJ/KG-MOL      K  
             H2                           1.0000000         0.000      0.000

 O/F=    0.00000  %FUEL=100.000000  R,EQ.RATIO= 0.000000  PHI,EQ.RATIO= 0.000000

 THERMODYNAMIC PROPERTIES

 P, BAR            1.2000   1.2000   1.2000   1.2000   1.2000   1.2000   1.2000   1.2000
 T, K             6600.00  6610.00  6620.00  6630.00  6640.00  6650.00  6660.00  6670.00
 RHO, KG/CU M    2.2079-3 2.2045-3 2.2011-3 2.1977-3 2.1944-3 2.1910-3 2.1876-3 2.1843-3
 H, KJ/KG        345643.2 345866.4 346089.5 346312.5 346535.5 346758.4 346981.3 347204.1
 U, KJ/KG        291292.9 291432.2 291571.4 291710.6 291849.7 291988.8 292127.9 292266.9
 G, KJ/KG       -816691.6-818452.9-820214.5-821976.4-823738.7-825501.4-827264.3-829027.6
 S, KJ/(KG)(K)   176.1113 176.1451 176.1788 176.2125 176.2461 176.2797 176.3132 176.3466

 M, (1/n)           1.010    1.010    1.010    1.010    1.010    1.010    1.010    1.009
 (dLV/dLP)t      -1.00201 -1.00198 -1.00196 -1.00194 -1.00192 -1.00190 -1.00188 -1.00186
 (dLV/dLT)p        1.0188   1.0186   1.0184   1.0183   1.0181   1.0180   1.0178   1.0176
 Cp, KJ/(KG)(K)   22.3214  22.3142  22.3075  22.3013  22.2955  22.2902  22.2853  22.2809
 GAMMAs            1.6153   1.6153   1.6154   1.6154   1.6154   1.6154   1.6154   1.6154
 SON VEL,M/SEC     9369.7   9377.1   9384.5   9391.8   9399.0   9406.3   9413.4   9420.6

 TRANSPORT PROPERTIES (GASES ONLY)
   CONDUCTIVITY IN UNITS OF MILLIWATTS/(CM)(K)

 VISC,MILLIPOISE  0.69308  0.69399  0.69490  0.69581  0.69672  0.69763  0.69854  0.69945

  WITH EQUILIBRIUM REACTIONS

 Cp, KJ/(KG)(K)   22.3214  22.3142  22.3075  22.3013  22.2955  22.2902  22.2853  22.2809
 CONDUCTIVITY     22.9884  22.9990  23.0100  23.0214  23.0332  23.0454  23.0579  23.0707
 PRANDTL NUMBER    0.6730   0.6733   0.6737   0.6740   0.6744   0.6748   0.6751   0.6755

  WITH FROZEN REACTIONS

 Cp, KJ/(KG)(K)   20.6174  20.6177  20.6180  20.6183  20.6186  20.6189  20.6192  20.6196
 CONDUCTIVITY     21.4394  21.4687  21.4980  21.5273  21.5567  21.5860  21.6154  21.6448
 PRANDTL NUMBER    0.6665   0.6665   0.6665   0.6664   0.6664   0.6664   0.6664   0.6663

 MOLE FRACTIONS

 *e-              0.00020  0.00021  0.00021  0.00021  0.00022  0.00022  0.00023  0.00023
 *H               0.99768  0.99770  0.99771  0.99773  0.99774  0.99776  0.99777  0.99778
 *H+              0.00020  0.00021  0.00021  0.00021  0.00022  0.00022  0.00023  0.00023
 *H2              0.00192  0.00189  0.00187  0.00184  0.00182  0.00180  0.00178  0.00175

  * THERMODYNAMIC PROPERTIES FITTED TO 20000.K

 NOTE. WEIGHT FRACTION OF FUEL IN TOTAL FUELS AND OF OXIDANT IN TOTAL OXIDANTS









               THERMODYNAMIC EQUILIBRIUM PROPERTIES AT ASSIGNED

                           TEMPERATURE AND PRESSURE

 CASE =                

             REACTANT                    WT FRACTION      ENERGY      TEMP
                                          (SEE NOTE)     KJ/KG-MOL      K  
             H2                           1.0000000         0.000      0.000

 O/F=    0.00000  %FUEL=100.000000  R,EQ.RATIO= 0.000000  PHI,EQ.RATIO= 0.000000

 THERMODYNAMIC PROPERTIES

 P, BAR            1.2000   1.2000   1.2000   1.2000   1.2000   1.2000   1.2000   1.3200
 T, K             6680.00  6690.00  6700.00  6710.00  6720.00  6730.00  6740.00  6600.00
 RHO, KG/CU M    2.1810-3 2.1777-3 2.1744-3 2.1711-3 2.1678-3 2.1645-3 2.1612-3 2.4292-3
 H, KJ/KG        347426.9 347649.7 347872.4 348095.1 348317.8 348540.4 348763.0 345542.1
 U, KJ/KG        292405.8 292544.8 292683.7 292822.6 292961.5 293100.4 293239.3 291202.7
 G, KJ/KG       -830791.3-832555.2-834319.5-836084.2-837849.1-839614.4-841380.0-811512.0
 S, KJ/(KG)(K)   176.3800 176.4133 176.4466 176.4798 176.5129 176.5460 176.5791 175.3112

 M, (1/n)           1.009    1.009    1.009    1.009    1.009    1.009    1.009    1.010
 (dLV/dLP)t      -1.00184 -1.00182 -1.00180 -1.00179 -1.00177 -1.00175 -1.00173 -1.00219
 (dLV/dLT)p        1.0175   1.0174   1.0172   1.0171   1.0170   1.0168   1.0167   1.0203
 Cp, KJ/(KG)(K)   22.2769  22.2734  22.2703  22.2676  22.2653  22.2634  22.2620  22.4054
 GAMMAs            1.6154   1.6153   1.6153   1.6152   1.6151   1.6150   1.6149   1.6137
 SON VEL,M/SEC     9427.6   9434.7   9441.7   9448.7   9455.6   9462.4   9469.3   9364.3

 TRANSPORT PROPERTIES (GASES ONLY)
   CONDUCTIVITY IN UNITS OF MILLIWATTS/(CM)(K)

 VISC,MILLIPOISE  0.70037  0.70128  0.70219  0.70310  0.70401  0.70492  0.70584  0.69342

  WITH EQUILIBRIUM REACTIONS

 Cp, KJ/(KG)(K)   22.2769  22.2734  22.2703  22.2676  22.2653  22.2634  22.2620  22.4054
 CONDUCTIVITY     23.0840  23.0975  23.1114  23.1257  23.1403  23.1552  23.1704  23.1318
 PRANDTL NUMBER    0.6759   0.6763   0.6766   0.6770   0.6774   0.6778   0.6782   0.6716

  WITH FROZEN REACTIONS

 Cp, KJ/(KG)(K)   20.6199  20.6202  20.6206  20.6209  20.6213  20.6216  20.6220  20.6174
 CONDUCTIVITY     21.6741  21.7035  21.7329  21.7623  21.7917  21.8211  21.8506  21.4448
 PRANDTL NUMBER    0.6663   0.6663   0.6662   0.6662   0.6662   0.6662   0.6661   0.6667

 MOLE FRACTIONS

 *e-              0.00024  0.00024  0.00025  0.00025  0.00025  0.00026  0.00026  0.00019
 *H               0.99780  0.99781  0.99782  0.99783  0.99784  0.99785  0.99786  0.99751
 *H+              0.00024  0.00024  0.00025  0.00025  0.00025  0.00026  0.00026  0.00019
 *H2              0.00173  0.00171  0.00169  0.00167  0.00165  0.00163  0.00161  0.00211

  * THERMODYNAMIC PROPERTIES FITTED TO 20000.K

 NOTE. WEIGHT FRACTION OF FUEL IN TOTAL FUELS AND OF OXIDANT IN TOTAL OXIDANTS









               THERMODYNAMIC EQUILIBRIUM PROPERTIES AT ASSIGNED

                           TEMPERATURE AND PRESSURE

 CASE =                

             REACTANT                    WT FRACTION      ENERGY      TEMP
                                          (SEE NOTE)     KJ/KG-MOL      K  
             H2                           1.0000000         0.000      0.000

 O/F=    0.00000  %FUEL=100.000000  R,EQ.RATIO= 0.000000  PHI,EQ.RATIO= 0.000000

 THERMODYNAMIC PROPERTIES

 P, BAR            1.3200   1.3200   1.3200   1.3200   1.3200   1.3200   1.3200   1.3200
 T, K             6610.00  6620.00  6630.00  6640.00  6650.00  6660.00  6670.00  6680.00
 RHO, KG/CU M    2.4254-3 2.4217-3 2.4180-3 2.4143-3 2.4106-3 2.4069-3 2.4032-3 2.3995-3
 H, KJ/KG        345766.1 345990.0 346213.8 346437.6 346661.3 346884.9 347108.4 347331.9
 U, KJ/KG        291342.7 291482.6 291622.5 291762.3 291902.0 292041.7 292181.3 292320.9
 G, KJ/KG       -813265.2-815018.9-816772.8-818527.1-820281.7-822036.7-823792.0-825547.7
 S, KJ/(KG)(K)   175.3451 175.3790 175.4128 175.4465 175.4802 175.5137 175.5473 175.5808

 M, (1/n)           1.010    1.010    1.010    1.010    1.010    1.010    1.010    1.010
 (dLV/dLP)t      -1.00217 -1.00214 -1.00212 -1.00210 -1.00207 -1.00205 -1.00203 -1.00201
 (dLV/dLT)p        1.0201   1.0199   1.0197   1.0195   1.0193   1.0191   1.0190   1.0188
 Cp, KJ/(KG)(K)   22.3960  22.3872  22.3788  22.3709  22.3635  22.3565  22.3501  22.3440
 GAMMAs            1.6139   1.6140   1.6141   1.6141   1.6142   1.6142   1.6143   1.6143
 SON VEL,M/SEC     9371.9   9379.4   9386.9   9394.3   9401.7   9409.0   9416.3   9423.6

 TRANSPORT PROPERTIES (GASES ONLY)
   CONDUCTIVITY IN UNITS OF MILLIWATTS/(CM)(K)

 VISC,MILLIPOISE  0.69432  0.69523  0.69614  0.69705  0.69796  0.69887  0.69978  0.70069

  WITH EQUILIBRIUM REACTIONS

 Cp, KJ/(KG)(K)   22.3960  22.3872  22.3788  22.3709  22.3635  22.3565  22.3501  22.3440
 CONDUCTIVITY     23.1403  23.1492  23.1585  23.1683  23.1784  23.1889  23.1998  23.2111
 PRANDTL NUMBER    0.6720   0.6723   0.6727   0.6731   0.6734   0.6738   0.6742   0.6745

  WITH FROZEN REACTIONS

 Cp, KJ/(KG)(K)   20.6176  20.6179  20.6182  20.6185  20.6188  20.6192  20.6195  20.6198
 CONDUCTIVITY     21.4741  21.5034  21.5327  21.5620  21.5913  21.6206  21.6499  21.6793
 PRANDTL NUMBER    0.6666   0.6666   0.6666   0.6666   0.6665   0.6665   0.6665   0.6665

 MOLE FRACTIONS

 *e-              0.00020  0.00020  0.00020  0.00021  0.00021  0.00022  0.00022  0.00022
 *H               0.99753  0.99755  0.99756  0.99758  0.99760  0.99761  0.99763  0.99765
 *H+              0.00020  0.00020  0.00020  0.00021  0.00021  0.00022  0.00022  0.00022
 *H2              0.00208  0.00205  0.00203  0.00200  0.00198  0.00195  0.00193  0.00190

  * THERMODYNAMIC PROPERTIES FITTED TO 20000.K

 NOTE. WEIGHT FRACTION OF FUEL IN TOTAL FUELS AND OF OXIDANT IN TOTAL OXIDANTS









               THERMODYNAMIC EQUILIBRIUM PROPERTIES AT ASSIGNED

                           TEMPERATURE AND PRESSURE

 CASE =                

             REACTANT                    WT FRACTION      ENERGY      TEMP
                                          (SEE NOTE)     KJ/KG-MOL      K  
             H2                           1.0000000         0.000      0.000

 O/F=    0.00000  %FUEL=100.000000  R,EQ.RATIO= 0.000000  PHI,EQ.RATIO= 0.000000

 THERMODYNAMIC PROPERTIES

 P, BAR            1.3200   1.3200   1.3200   1.3200   1.3200   1.3200   1.4800   1.4800
 T, K             6690.00  6700.00  6710.00  6720.00  6730.00  6740.00  6600.00  6610.00
 RHO, KG/CU M    2.3959-3 2.3922-3 2.3886-3 2.3850-3 2.3814-3 2.3778-3 2.7243-3 2.7201-3
 H, KJ/KG        347555.3 347778.6 348001.9 348225.2 348448.4 348671.6 345410.0 345635.2
 U, KJ/KG        292460.4 292599.8 292739.3 292878.7 293018.1 293157.4 291085.0 291226.0
 G, KJ/KG       -827303.6-829059.9-830816.6-832573.6-834330.9-836088.5-805295.8-807039.4
 S, KJ/(KG)(K)   175.6142 175.6475 175.6809 175.7141 175.7473 175.7804 174.3494 174.3835

 M, (1/n)           1.010    1.010    1.010    1.010    1.009    1.009    1.010    1.010
 (dLV/dLP)t      -1.00199 -1.00197 -1.00195 -1.00193 -1.00191 -1.00189 -1.00244 -1.00241
 (dLV/dLT)p        1.0186   1.0185   1.0183   1.0182   1.0180   1.0179   1.0223   1.0220
 Cp, KJ/(KG)(K)   22.3385  22.3333  22.3287  22.3244  22.3206  22.3173  22.5222  22.5101
 GAMMAs            1.6143   1.6143   1.6143   1.6143   1.6142   1.6142   1.6115   1.6117
 SON VEL,M/SEC     9430.8   9438.0   9445.1   9452.2   9459.2   9466.2   9356.6   9364.4

 TRANSPORT PROPERTIES (GASES ONLY)
   CONDUCTIVITY IN UNITS OF MILLIWATTS/(CM)(K)

 VISC,MILLIPOISE  0.70160  0.70252  0.70343  0.70434  0.70525  0.70616  0.69385  0.69476

  WITH EQUILIBRIUM REACTIONS

 Cp, KJ/(KG)(K)   22.3385  22.3333  22.3287  22.3244  22.3206  22.3173  22.5222  22.5101
 CONDUCTIVITY     23.2228  23.2349  23.2473  23.2600  23.2731  23.2866  23.3235  23.3292
 PRANDTL NUMBER    0.6749   0.6753   0.6756   0.6760   0.6764   0.6768   0.6700   0.6704

  WITH FROZEN REACTIONS

 Cp, KJ/(KG)(K)   20.6201  20.6205  20.6208  20.6211  20.6215  20.6218  20.6173  20.6176
 CONDUCTIVITY     21.7086  21.7380  21.7673  21.7967  21.8261  21.8555  21.4520  21.4812
 PRANDTL NUMBER    0.6664   0.6664   0.6664   0.6663   0.6663   0.6663   0.6669   0.6668

 MOLE FRACTIONS

 *e-              0.00023  0.00023  0.00024  0.00024  0.00025  0.00025  0.00018  0.00018
 *H               0.99766  0.99767  0.99769  0.99770  0.99771  0.99773  0.99728  0.99730
 *H+              0.00023  0.00023  0.00024  0.00024  0.00025  0.00025  0.00018  0.00018
 *H2              0.00188  0.00186  0.00183  0.00181  0.00179  0.00177  0.00236  0.00233

  * THERMODYNAMIC PROPERTIES FITTED TO 20000.K

 NOTE. WEIGHT FRACTION OF FUEL IN TOTAL FUELS AND OF OXIDANT IN TOTAL OXIDANTS









               THERMODYNAMIC EQUILIBRIUM PROPERTIES AT ASSIGNED

                           TEMPERATURE AND PRESSURE

 CASE =                

             REACTANT                    WT FRACTION      ENERGY      TEMP
                                          (SEE NOTE)     KJ/KG-MOL      K  
             H2                           1.0000000         0.000      0.000

 O/F=    0.00000  %FUEL=100.000000  R,EQ.RATIO= 0.000000  PHI,EQ.RATIO= 0.000000

 THERMODYNAMIC PROPERTIES

 P, BAR            1.4800   1.4800   1.4800   1.4800   1.4800   1.4800   1.4800   1.4800
 T, K             6620.00  6630.00  6640.00  6650.00  6660.00  6670.00  6680.00  6690.00
 RHO, KG/CU M    2.7159-3 2.7117-3 2.7076-3 2.7034-3 2.6993-3 2.6951-3 2.6910-3 2.6869-3
 H, KJ/KG        345860.2 346085.2 346310.0 346534.7 346759.3 346983.9 347208.3 347432.6
 U, KJ/KG        291366.9 291507.8 291648.5 291789.1 291929.7 292070.2 292210.6 292350.9
 G, KJ/KG       -808783.4-810527.8-812272.5-814017.5-815762.8-817508.5-819254.6-821000.9
 S, KJ/(KG)(K)   174.4175 174.4514 174.4853 174.5191 174.5529 174.5866 174.6202 174.6537

 M, (1/n)           1.010    1.010    1.010    1.010    1.010    1.010    1.010    1.010
 (dLV/dLP)t      -1.00238 -1.00235 -1.00233 -1.00230 -1.00228 -1.00225 -1.00223 -1.00220
 (dLV/dLT)p        1.0218   1.0216   1.0213   1.0211   1.0209   1.0207   1.0205   1.0203
 Cp, KJ/(KG)(K)   22.4984  22.4873  22.4767  22.4666  22.4570  22.4479  22.4392  22.4311
 GAMMAs            1.6119   1.6121   1.6122   1.6123   1.6124   1.6125   1.6126   1.6127
 SON VEL,M/SEC     9372.2   9379.9   9387.5   9395.1   9402.6   9410.1   9417.6   9425.0

 TRANSPORT PROPERTIES (GASES ONLY)
   CONDUCTIVITY IN UNITS OF MILLIWATTS/(CM)(K)

 VISC,MILLIPOISE  0.69567  0.69658  0.69748  0.69839  0.69930  0.70021  0.70112  0.70203

  WITH EQUILIBRIUM REACTIONS

 Cp, KJ/(KG)(K)   22.4984  22.4873  22.4767  22.4666  22.4570  22.4479  22.4392  22.4311
 CONDUCTIVITY     23.3353  23.3418  23.3489  23.3563  23.3642  23.3726  23.3813  23.3905
 PRANDTL NUMBER    0.6707   0.6711   0.6714   0.6718   0.6721   0.6725   0.6729   0.6732

  WITH FROZEN REACTIONS

 Cp, KJ/(KG)(K)   20.6179  20.6182  20.6185  20.6188  20.6191  20.6194  20.6197  20.6200
 CONDUCTIVITY     21.5104  21.5396  21.5689  21.5981  21.6274  21.6567  21.6860  21.7153
 PRANDTL NUMBER    0.6668   0.6668   0.6667   0.6667   0.6667   0.6667   0.6666   0.6666

 MOLE FRACTIONS

 *e-              0.00019  0.00019  0.00020  0.00020  0.00020  0.00021  0.00021  0.00022
 *H               0.99732  0.99734  0.99736  0.99738  0.99740  0.99742  0.99744  0.99746
 *H+              0.00019  0.00019  0.00020  0.00020  0.00020  0.00021  0.00021  0.00022
 *H2              0.00230  0.00227  0.00224  0.00222  0.00219  0.00216  0.00213  0.00211

  * THERMODYNAMIC PROPERTIES FITTED TO 20000.K

 NOTE. WEIGHT FRACTION OF FUEL IN TOTAL FUELS AND OF OXIDANT IN TOTAL OXIDANTS









               THERMODYNAMIC EQUILIBRIUM PROPERTIES AT ASSIGNED

                           TEMPERATURE AND PRESSURE

 CASE =                

             REACTANT                    WT FRACTION      ENERGY      TEMP
                                          (SEE NOTE)     KJ/KG-MOL      K  
             H2                           1.0000000         0.000      0.000

 O/F=    0.00000  %FUEL=100.000000  R,EQ.RATIO= 0.000000  PHI,EQ.RATIO= 0.000000

 THERMODYNAMIC PROPERTIES

 P, BAR            1.4800   1.4800   1.4800   1.4800   1.4800   1.6500   1.6500   1.6500
 T, K             6700.00  6710.00  6720.00  6730.00  6740.00  6600.00  6610.00  6620.00
 RHO, KG/CU M    2.6828-3 2.6787-3 2.6747-3 2.6706-3 2.6666-3 3.0381-3 3.0334-3 3.0287-3
 H, KJ/KG        347656.9 347881.1 348105.2 348329.3 348553.3 345272.5 345498.9 345725.2
 U, KJ/KG        292491.2 292631.4 292771.6 292911.7 293051.7 290962.6 291104.7 291246.7
 G, KJ/KG       -822747.7-824494.7-826242.1-827989.8-829737.8-799389.6-801124.1-802859.0
 S, KJ/(KG)(K)   174.6872 174.7207 174.7541 174.7874 174.8206 173.4337 173.4679 173.5021

 M, (1/n)           1.010    1.010    1.010    1.010    1.010    1.010    1.010    1.010
 (dLV/dLP)t      -1.00218 -1.00216 -1.00213 -1.00211 -1.00209 -1.00270 -1.00267 -1.00264
 (dLV/dLT)p        1.0201   1.0200   1.0198   1.0196   1.0194   1.0244   1.0241   1.0238
 Cp, KJ/(KG)(K)   22.4234  22.4162  22.4095  22.4032  22.3974  22.6509  22.6359  22.6214
 GAMMAs            1.6128   1.6128   1.6129   1.6129   1.6129   1.6091   1.6093   1.6096
 SON VEL,M/SEC     9432.4   9439.7   9447.0   9454.2   9461.4   9348.1   9356.1   9364.1

 TRANSPORT PROPERTIES (GASES ONLY)
   CONDUCTIVITY IN UNITS OF MILLIWATTS/(CM)(K)

 VISC,MILLIPOISE  0.70293  0.70384  0.70475  0.70566  0.70657  0.69431  0.69521  0.69612

  WITH EQUILIBRIUM REACTIONS

 Cp, KJ/(KG)(K)   22.4234  22.4162  22.4095  22.4032  22.3974  22.6509  22.6359  22.6214
 CONDUCTIVITY     23.4001  23.4100  23.4204  23.4312  23.4423  23.5275  23.5301  23.5333
 PRANDTL NUMBER    0.6736   0.6740   0.6743   0.6747   0.6751   0.6684   0.6688   0.6691

  WITH FROZEN REACTIONS

 Cp, KJ/(KG)(K)   20.6203  20.6207  20.6210  20.6214  20.6217  20.6173  20.6176  20.6179
 CONDUCTIVITY     21.7446  21.7739  21.8033  21.8326  21.8620  21.4595  21.4886  21.5177
 PRANDTL NUMBER    0.6666   0.6666   0.6665   0.6665   0.6665   0.6671   0.6670   0.6670

 MOLE FRACTIONS

 *e-              0.00022  0.00023  0.00023  0.00023  0.00024  0.00017  0.00018  0.00018
 *H               0.99748  0.99749  0.99751  0.99753  0.99754  0.99703  0.99705  0.99708
 *H+              0.00022  0.00023  0.00023  0.00023  0.00024  0.00017  0.00018  0.00018
 *H2              0.00208  0.00206  0.00203  0.00201  0.00198  0.00263  0.00260  0.00256

  * THERMODYNAMIC PROPERTIES FITTED TO 20000.K

 NOTE. WEIGHT FRACTION OF FUEL IN TOTAL FUELS AND OF OXIDANT IN TOTAL OXIDANTS









               THERMODYNAMIC EQUILIBRIUM PROPERTIES AT ASSIGNED

                           TEMPERATURE AND PRESSURE

 CASE =                

             REACTANT                    WT FRACTION      ENERGY      TEMP
                                          (SEE NOTE)     KJ/KG-MOL      K  
             H2                           1.0000000         0.000      0.000

 O/F=    0.00000  %FUEL=100.000000  R,EQ.RATIO= 0.000000  PHI,EQ.RATIO= 0.000000

 THERMODYNAMIC PROPERTIES

 P, BAR            1.6500   1.6500   1.6500   1.6500   1.6500   1.6500   1.6500   1.6500
 T, K             6630.00  6640.00  6650.00  6660.00  6670.00  6680.00  6690.00  6700.00
 RHO, KG/CU M    3.0240-3 3.0194-3 3.0147-3 3.0101-3 3.0055-3 3.0009-3 2.9963-3 2.9917-3
 H, KJ/KG        345951.3 346177.3 346403.2 346629.0 346854.6 347080.1 347305.5 347530.8
 U, KJ/KG        291388.6 291530.4 291672.1 291813.6 291955.1 292096.4 292237.7 292378.8
 G, KJ/KG       -804594.2-806329.7-808065.6-809801.8-811538.4-813275.3-815012.5-816750.0
 S, KJ/(KG)(K)   173.5363 173.5703 173.6043 173.6383 173.6721 173.7059 173.7396 173.7733

 M, (1/n)           1.010    1.010    1.010    1.010    1.010    1.010    1.010    1.010
 (dLV/dLP)t      -1.00261 -1.00258 -1.00255 -1.00252 -1.00249 -1.00246 -1.00244 -1.00241
 (dLV/dLT)p        1.0236   1.0233   1.0231   1.0229   1.0226   1.0224   1.0222   1.0219
 Cp, KJ/(KG)(K)   22.6075  22.5941  22.5812  22.5689  22.5571  22.5458  22.5350  22.5248
 GAMMAs            1.6098   1.6100   1.6102   1.6104   1.6105   1.6107   1.6108   1.6110
 SON VEL,M/SEC     9372.0   9379.8   9387.6   9395.4   9403.1   9410.7   9418.4   9425.9

 TRANSPORT PROPERTIES (GASES ONLY)
   CONDUCTIVITY IN UNITS OF MILLIWATTS/(CM)(K)

 VISC,MILLIPOISE  0.69702  0.69793  0.69883  0.69974  0.70064  0.70155  0.70246  0.70336

  WITH EQUILIBRIUM REACTIONS

 Cp, KJ/(KG)(K)   22.6075  22.5941  22.5812  22.5689  22.5571  22.5458  22.5350  22.5248
 CONDUCTIVITY     23.5370  23.5411  23.5458  23.5509  23.5565  23.5626  23.5692  23.5761
 PRANDTL NUMBER    0.6695   0.6698   0.6702   0.6706   0.6709   0.6713   0.6716   0.6720

  WITH FROZEN REACTIONS

 Cp, KJ/(KG)(K)   20.6181  20.6184  20.6187  20.6190  20.6193  20.6196  20.6200  20.6203
 CONDUCTIVITY     21.5469  21.5761  21.6053  21.6345  21.6637  21.6930  21.7222  21.7515
 PRANDTL NUMBER    0.6670   0.6669   0.6669   0.6669   0.6669   0.6668   0.6668   0.6668

 MOLE FRACTIONS

 *e-              0.00018  0.00019  0.00019  0.00019  0.00020  0.00020  0.00021  0.00021
 *H               0.99710  0.99713  0.99715  0.99717  0.99720  0.99722  0.99724  0.99726
 *H+              0.00018  0.00019  0.00019  0.00019  0.00020  0.00020  0.00020  0.00021
 *H2              0.00253  0.00250  0.00247  0.00244  0.00241  0.00238  0.00235  0.00232

  * THERMODYNAMIC PROPERTIES FITTED TO 20000.K

 NOTE. WEIGHT FRACTION OF FUEL IN TOTAL FUELS AND OF OXIDANT IN TOTAL OXIDANTS









               THERMODYNAMIC EQUILIBRIUM PROPERTIES AT ASSIGNED

                           TEMPERATURE AND PRESSURE

 CASE =                

             REACTANT                    WT FRACTION      ENERGY      TEMP
                                          (SEE NOTE)     KJ/KG-MOL      K  
             H2                           1.0000000         0.000      0.000

 O/F=    0.00000  %FUEL=100.000000  R,EQ.RATIO= 0.000000  PHI,EQ.RATIO= 0.000000

 THERMODYNAMIC PROPERTIES

 P, BAR            1.6500   1.6500   1.6500   1.6500   1.8000   1.8000   1.8000   1.8000
 T, K             6710.00  6720.00  6730.00  6740.00  6600.00  6610.00  6620.00  6630.00
 RHO, KG/CU M    2.9872-3 2.9826-3 2.9781-3 2.9736-3 3.3151-3 3.3100-3 3.3048-3 3.2997-3
 H, KJ/KG        347756.0 347981.1 348206.1 348431.0 345152.9 345380.5 345607.9 345835.1
 U, KJ/KG        292519.9 292660.9 292801.9 292942.7 290856.3 290999.4 291142.5 291285.3
 G, KJ/KG       -818487.9-820226.2-821964.8-823703.7-794664.6-796391.8-798119.3-799847.2
 S, KJ/(KG)(K)   173.8068 173.8404 173.8738 173.9072 172.6996 172.7341 172.7685 172.8028

 M, (1/n)           1.010    1.010    1.010    1.010    1.011    1.011    1.011    1.011
 (dLV/dLP)t      -1.00238 -1.00236 -1.00233 -1.00231 -1.00293 -1.00289 -1.00286 -1.00283
 (dLV/dLT)p        1.0217   1.0215   1.0213   1.0211   1.0263   1.0260   1.0257   1.0254
 Cp, KJ/(KG)(K)   22.5150  22.5057  22.4969  22.4886  22.7675  22.7499  22.7330  22.7166
 GAMMAs            1.6111   1.6112   1.6113   1.6114   1.6068   1.6071   1.6074   1.6077
 SON VEL,M/SEC     9433.5   9440.9   9448.4   9455.8   9340.4   9348.6   9356.7   9364.8

 TRANSPORT PROPERTIES (GASES ONLY)
   CONDUCTIVITY IN UNITS OF MILLIWATTS/(CM)(K)

 VISC,MILLIPOISE  0.70427  0.70518  0.70609  0.70699  0.69470  0.69560  0.69650  0.69741

  WITH EQUILIBRIUM REACTIONS

 Cp, KJ/(KG)(K)   22.5150  22.5057  22.4969  22.4886  22.7675  22.7499  22.7330  22.7166
 CONDUCTIVITY     23.5835  23.5914  23.5997  23.6084  23.7075  23.7075  23.7081  23.7092
 PRANDTL NUMBER    0.6724   0.6727   0.6731   0.6735   0.6672   0.6675   0.6679   0.6682

  WITH FROZEN REACTIONS

 Cp, KJ/(KG)(K)   20.6206  20.6209  20.6213  20.6216  20.6173  20.6176  20.6179  20.6181
 CONDUCTIVITY     21.7808  21.8101  21.8394  21.8687  21.4660  21.4951  21.5242  21.5533
 PRANDTL NUMBER    0.6668   0.6667   0.6667   0.6667   0.6672   0.6672   0.6672   0.6671

 MOLE FRACTIONS

 *e-              0.00021  0.00022  0.00022  0.00023  0.00016  0.00017  0.00017  0.00017
 *H               0.99728  0.99730  0.99732  0.99734  0.99680  0.99683  0.99686  0.99689
 *H+              0.00021  0.00022  0.00022  0.00023  0.00016  0.00017  0.00017  0.00017
 *H2              0.00229  0.00226  0.00224  0.00221  0.00287  0.00283  0.00280  0.00276

  * THERMODYNAMIC PROPERTIES FITTED TO 20000.K

 NOTE. WEIGHT FRACTION OF FUEL IN TOTAL FUELS AND OF OXIDANT IN TOTAL OXIDANTS









               THERMODYNAMIC EQUILIBRIUM PROPERTIES AT ASSIGNED

                           TEMPERATURE AND PRESSURE

 CASE =                

             REACTANT                    WT FRACTION      ENERGY      TEMP
                                          (SEE NOTE)     KJ/KG-MOL      K  
             H2                           1.0000000         0.000      0.000

 O/F=    0.00000  %FUEL=100.000000  R,EQ.RATIO= 0.000000  PHI,EQ.RATIO= 0.000000

 THERMODYNAMIC PROPERTIES

 P, BAR            1.8000   1.8000   1.8000   1.8000   1.8000   1.8000   1.8000   1.8000
 T, K             6640.00  6650.00  6660.00  6670.00  6680.00  6690.00  6700.00  6710.00
 RHO, KG/CU M    3.2946-3 3.2896-3 3.2845-3 3.2795-3 3.2744-3 3.2694-3 3.2644-3 3.2594-3
 H, KJ/KG        346062.2 346289.2 346515.9 346742.6 346969.1 347195.4 347421.7 347647.8
 U, KJ/KG        291428.1 291570.6 291713.1 291855.5 291997.7 292139.8 292281.8 292423.7
 G, KJ/KG       -801575.4-803303.9-805032.8-806762.0-808491.6-810221.5-811951.7-813682.3
 S, KJ/(KG)(K)   172.8370 172.8711 172.9052 172.9392 172.9732 173.0070 173.0408 173.0745

 M, (1/n)           1.011    1.010    1.010    1.010    1.010    1.010    1.010    1.010
 (dLV/dLP)t      -1.00280 -1.00276 -1.00273 -1.00270 -1.00267 -1.00264 -1.00261 -1.00258
 (dLV/dLT)p        1.0251   1.0248   1.0246   1.0243   1.0241   1.0238   1.0236   1.0233
 Cp, KJ/(KG)(K)   22.7008  22.6856  22.6710  22.6569  22.6433  22.6303  22.6178  22.6059
 GAMMAs            1.6080   1.6082   1.6084   1.6087   1.6089   1.6091   1.6093   1.6094
 SON VEL,M/SEC     9372.8   9380.8   9388.7   9396.6   9404.4   9412.2   9419.9   9427.6

 TRANSPORT PROPERTIES (GASES ONLY)
   CONDUCTIVITY IN UNITS OF MILLIWATTS/(CM)(K)

 VISC,MILLIPOISE  0.69831  0.69921  0.70011  0.70102  0.70192  0.70283  0.70373  0.70464

  WITH EQUILIBRIUM REACTIONS

 Cp, KJ/(KG)(K)   22.7008  22.6856  22.6710  22.6569  22.6433  22.6303  22.6178  22.6059
 CONDUCTIVITY     23.7109  23.7131  23.7159  23.7191  23.7228  23.7270  23.7318  23.7369
 PRANDTL NUMBER    0.6686   0.6689   0.6693   0.6696   0.6700   0.6703   0.6707   0.6711

  WITH FROZEN REACTIONS

 Cp, KJ/(KG)(K)   20.6184  20.6187  20.6190  20.6193  20.6196  20.6199  20.6202  20.6206
 CONDUCTIVITY     21.5824  21.6115  21.6407  21.6699  21.6991  21.7283  21.7575  21.7867
 PRANDTL NUMBER    0.6671   0.6671   0.6671   0.6670   0.6670   0.6670   0.6669   0.6669

 MOLE FRACTIONS

 *e-              0.00018  0.00018  0.00019  0.00019  0.00019  0.00020  0.00020  0.00020
 *H               0.99692  0.99694  0.99697  0.99700  0.99702  0.99705  0.99707  0.99709
 *H+              0.00018  0.00018  0.00018  0.00019  0.00019  0.00020  0.00020  0.00020
 *H2              0.00273  0.00269  0.00266  0.00263  0.00259  0.00256  0.00253  0.00250

  * THERMODYNAMIC PROPERTIES FITTED TO 20000.K

 NOTE. WEIGHT FRACTION OF FUEL IN TOTAL FUELS AND OF OXIDANT IN TOTAL OXIDANTS









               THERMODYNAMIC EQUILIBRIUM PROPERTIES AT ASSIGNED

                           TEMPERATURE AND PRESSURE

 CASE =                

             REACTANT                    WT FRACTION      ENERGY      TEMP
                                          (SEE NOTE)     KJ/KG-MOL      K  
             H2                           1.0000000         0.000      0.000

 O/F=    0.00000  %FUEL=100.000000  R,EQ.RATIO= 0.000000  PHI,EQ.RATIO= 0.000000

 THERMODYNAMIC PROPERTIES

 P, BAR            1.8000   1.8000   1.8000   2.0000   2.0000   2.0000   2.0000   2.0000
 T, K             6720.00  6730.00  6740.00  6600.00  6610.00  6620.00  6630.00  6640.00
 RHO, KG/CU M    3.2545-3 3.2495-3 3.2446-3 3.6847-3 3.6789-3 3.6732-3 3.6675-3 3.6618-3
 H, KJ/KG        347873.8 348099.7 348325.5 344995.6 345224.7 345453.7 345682.4 345911.0
 U, KJ/KG        292565.5 292707.1 292848.7 290716.6 290861.1 291005.5 291149.7 291293.8
 G, KJ/KG       -815413.2-817144.5-818876.0-788944.8-790663.1-792381.7-794100.7-795820.0
 S, KJ/(KG)(K)   173.1082 173.1418 173.1753 171.8092 171.8438 171.8785 171.9130 171.9474

 M, (1/n)           1.010    1.010    1.010    1.011    1.011    1.011    1.011    1.011
 (dLV/dLP)t      -1.00256 -1.00253 -1.00250 -1.00323 -1.00320 -1.00316 -1.00312 -1.00309
 (dLV/dLT)p        1.0231   1.0229   1.0226   1.0288   1.0284   1.0281   1.0278   1.0275
 Cp, KJ/(KG)(K)   22.5944  22.5835  22.5731  22.9260  22.9052  22.8851  22.8656  22.8467
 GAMMAs            1.6096   1.6097   1.6099   1.6037   1.6041   1.6044   1.6048   1.6051
 SON VEL,M/SEC     9435.2   9442.8   9450.4   9329.9   9338.3   9346.6   9354.9   9363.1

 TRANSPORT PROPERTIES (GASES ONLY)
   CONDUCTIVITY IN UNITS OF MILLIWATTS/(CM)(K)

 VISC,MILLIPOISE  0.70554  0.70645  0.70735  0.69521  0.69611  0.69701  0.69791  0.69881

  WITH EQUILIBRIUM REACTIONS

 Cp, KJ/(KG)(K)   22.5944  22.5835  22.5731  22.9260  22.9052  22.8851  22.8656  22.8467
 CONDUCTIVITY     23.7426  23.7487  23.7552  23.9474  23.9440  23.9412  23.9390  23.9374
 PRANDTL NUMBER    0.6714   0.6718   0.6722   0.6656   0.6659   0.6663   0.6666   0.6670

  WITH FROZEN REACTIONS

 Cp, KJ/(KG)(K)   20.6209  20.6212  20.6215  20.6174  20.6176  20.6179  20.6182  20.6184
 CONDUCTIVITY     21.8160  21.8452  21.8745  21.4746  21.5036  21.5326  21.5617  21.5907
 PRANDTL NUMBER    0.6669   0.6669   0.6668   0.6675   0.6674   0.6674   0.6674   0.6673

 MOLE FRACTIONS

 *e-              0.00021  0.00021  0.00022  0.00016  0.00016  0.00016  0.00017  0.00017
 *H               0.99712  0.99714  0.99716  0.99650  0.99654  0.99657  0.99660  0.99663
 *H+              0.00021  0.00021  0.00022  0.00016  0.00016  0.00016  0.00017  0.00017
 *H2              0.00247  0.00244  0.00241  0.00319  0.00315  0.00311  0.00307  0.00303

  * THERMODYNAMIC PROPERTIES FITTED TO 20000.K

 NOTE. WEIGHT FRACTION OF FUEL IN TOTAL FUELS AND OF OXIDANT IN TOTAL OXIDANTS









               THERMODYNAMIC EQUILIBRIUM PROPERTIES AT ASSIGNED

                           TEMPERATURE AND PRESSURE

 CASE =                

             REACTANT                    WT FRACTION      ENERGY      TEMP
                                          (SEE NOTE)     KJ/KG-MOL      K  
             H2                           1.0000000         0.000      0.000

 O/F=    0.00000  %FUEL=100.000000  R,EQ.RATIO= 0.000000  PHI,EQ.RATIO= 0.000000

 THERMODYNAMIC PROPERTIES

 P, BAR            2.0000   2.0000   2.0000   2.0000   2.0000   2.0000   2.0000   2.0000
 T, K             6650.00  6660.00  6670.00  6680.00  6690.00  6700.00  6710.00  6720.00
 RHO, KG/CU M    3.6562-3 3.6506-3 3.6449-3 3.6393-3 3.6337-3 3.6282-3 3.6226-3 3.6171-3
 H, KJ/KG        346139.4 346367.6 346595.6 346823.5 347051.2 347278.7 347506.1 347733.3
 U, KJ/KG        291437.6 291581.3 291724.9 291868.3 292011.6 292154.7 292297.7 292440.6
 G, KJ/KG       -797539.6-799259.6-800979.9-802700.6-804421.6-806143.0-807864.7-809586.7
 S, KJ/(KG)(K)   171.9818 172.0161 172.0503 172.0844 172.1185 172.1525 172.1864 172.2202

 M, (1/n)           1.011    1.011    1.011    1.011    1.011    1.011    1.011    1.011
 (dLV/dLP)t      -1.00305 -1.00302 -1.00298 -1.00295 -1.00292 -1.00288 -1.00285 -1.00282
 (dLV/dLT)p        1.0272   1.0269   1.0266   1.0263   1.0260   1.0257   1.0254   1.0252
 Cp, KJ/(KG)(K)   22.8285  22.8108  22.7937  22.7772  22.7613  22.7460  22.7312  22.7169
 GAMMAs            1.6055   1.6058   1.6061   1.6064   1.6066   1.6069   1.6071   1.6073
 SON VEL,M/SEC     9371.3   9379.5   9387.6   9395.6   9403.6   9411.5   9419.4   9427.3

 TRANSPORT PROPERTIES (GASES ONLY)
   CONDUCTIVITY IN UNITS OF MILLIWATTS/(CM)(K)

 VISC,MILLIPOISE  0.69971  0.70061  0.70151  0.70241  0.70331  0.70421  0.70511  0.70602

  WITH EQUILIBRIUM REACTIONS

 Cp, KJ/(KG)(K)   22.8285  22.8108  22.7937  22.7772  22.7613  22.7460  22.7312  22.7169
 CONDUCTIVITY     23.9363  23.9359  23.9359  23.9366  23.9377  23.9395  23.9417  23.9444
 PRANDTL NUMBER    0.6673   0.6677   0.6680   0.6684   0.6687   0.6691   0.6695   0.6698

  WITH FROZEN REACTIONS

 Cp, KJ/(KG)(K)   20.6187  20.6190  20.6193  20.6196  20.6199  20.6202  20.6205  20.6208
 CONDUCTIVITY     21.6198  21.6489  21.6780  21.7071  21.7362  21.7654  21.7945  21.8237
 PRANDTL NUMBER    0.6673   0.6673   0.6672   0.6672   0.6672   0.6672   0.6671   0.6671

 MOLE FRACTIONS

 *e-              0.00017  0.00018  0.00018  0.00018  0.00019  0.00019  0.00019  0.00020
 *H               0.99666  0.99670  0.99673  0.99675  0.99678  0.99681  0.99684  0.99686
 *H+              0.00017  0.00018  0.00018  0.00018  0.00019  0.00019  0.00019  0.00020
 *H2              0.00299  0.00295  0.00292  0.00288  0.00284  0.00281  0.00277  0.00274

  * THERMODYNAMIC PROPERTIES FITTED TO 20000.K

 NOTE. WEIGHT FRACTION OF FUEL IN TOTAL FUELS AND OF OXIDANT IN TOTAL OXIDANTS









               THERMODYNAMIC EQUILIBRIUM PROPERTIES AT ASSIGNED

                           TEMPERATURE AND PRESSURE

 CASE =                

             REACTANT                    WT FRACTION      ENERGY      TEMP
                                          (SEE NOTE)     KJ/KG-MOL      K  
             H2                           1.0000000         0.000      0.000

 O/F=    0.00000  %FUEL=100.000000  R,EQ.RATIO= 0.000000  PHI,EQ.RATIO= 0.000000

 THERMODYNAMIC PROPERTIES

 P, BAR            2.0000   2.0000   2.2500   2.2500   2.2500   2.2500   2.2500   2.2500
 T, K             6730.00  6740.00  6600.00  6610.00  6620.00  6630.00  6640.00  6650.00
 RHO, KG/CU M    3.6116-3 3.6061-3 4.1469-3 4.1404-3 4.1340-3 4.1276-3 4.1212-3 4.1148-3
 H, KJ/KG        347960.4 348187.4 344801.7 345032.8 345263.8 345494.4 345724.9 345955.1
 U, KJ/KG        292583.4 292726.0 290544.6 290690.9 290837.0 290982.9 291128.6 291274.1
 G, KJ/KG       -811309.1-813031.8-782552.9-784261.2-785969.9-787678.9-789388.2-791097.9
 S, KJ/(KG)(K)   172.2540 172.2877 170.8113 170.8463 170.8812 170.9160 170.9508 170.9854

 M, (1/n)           1.010    1.010    1.011    1.011    1.011    1.011    1.011    1.011
 (dLV/dLP)t      -1.00279 -1.00276 -1.00362 -1.00358 -1.00353 -1.00349 -1.00345 -1.00341
 (dLV/dLT)p        1.0249   1.0247   1.0319   1.0316   1.0312   1.0308   1.0305   1.0301
 Cp, KJ/(KG)(K)   22.7032  22.6901  23.1279  23.1032  23.0792  23.0559  23.0333  23.0113
 GAMMAs            1.6075   1.6077   1.5998   1.6002   1.6007   1.6011   1.6015   1.6019
 SON VEL,M/SEC     9435.1   9442.8   9316.6   9325.2   9333.8   9342.3   9350.8   9359.3

 TRANSPORT PROPERTIES (GASES ONLY)
   CONDUCTIVITY IN UNITS OF MILLIWATTS/(CM)(K)

 VISC,MILLIPOISE  0.70692  0.70782  0.69584  0.69673  0.69763  0.69852  0.69942  0.70031

  WITH EQUILIBRIUM REACTIONS

 Cp, KJ/(KG)(K)   22.7032  22.6901  23.1279  23.1032  23.0792  23.0559  23.0333  23.0113
 CONDUCTIVITY     23.9477  23.9514  24.2470  24.2393  24.2323  24.2260  24.2203  24.2152
 PRANDTL NUMBER    0.6702   0.6705   0.6637   0.6641   0.6644   0.6648   0.6651   0.6655

  WITH FROZEN REACTIONS

 Cp, KJ/(KG)(K)   20.6212  20.6215  20.6174  20.6177  20.6180  20.6182  20.6185  20.6188
 CONDUCTIVITY     21.8529  21.8821  21.4853  21.5142  21.5431  21.5720  21.6010  21.6300
 PRANDTL NUMBER    0.6671   0.6670   0.6677   0.6677   0.6677   0.6676   0.6676   0.6676

 MOLE FRACTIONS

 *e-              0.00020  0.00021  0.00015  0.00015  0.00015  0.00016  0.00016  0.00016
 *H               0.99689  0.99691  0.99612  0.99616  0.99620  0.99624  0.99628  0.99631
 *H+              0.00020  0.00021  0.00015  0.00015  0.00015  0.00016  0.00016  0.00016
 *H2              0.00271  0.00267  0.00358  0.00354  0.00349  0.00345  0.00340  0.00336

  * THERMODYNAMIC PROPERTIES FITTED TO 20000.K

 NOTE. WEIGHT FRACTION OF FUEL IN TOTAL FUELS AND OF OXIDANT IN TOTAL OXIDANTS









               THERMODYNAMIC EQUILIBRIUM PROPERTIES AT ASSIGNED

                           TEMPERATURE AND PRESSURE

 CASE =                

             REACTANT                    WT FRACTION      ENERGY      TEMP
                                          (SEE NOTE)     KJ/KG-MOL      K  
             H2                           1.0000000         0.000      0.000

 O/F=    0.00000  %FUEL=100.000000  R,EQ.RATIO= 0.000000  PHI,EQ.RATIO= 0.000000

 THERMODYNAMIC PROPERTIES

 P, BAR            2.2500   2.2500   2.2500   2.2500   2.2500   2.2500   2.2500   2.2500
 T, K             6660.00  6670.00  6680.00  6690.00  6700.00  6710.00  6720.00  6730.00
 RHO, KG/CU M    4.1084-3 4.1021-3 4.0958-3 4.0895-3 4.0832-3 4.0769-3 4.0707-3 4.0645-3
 H, KJ/KG        346185.1 346414.9 346644.5 346873.9 347103.1 347332.1 347561.0 347789.6
 U, KJ/KG        291419.4 291564.6 291709.5 291854.3 291998.9 292143.4 292287.6 292431.8
 G, KJ/KG       -792807.9-794518.3-796229.0-797940.0-799651.4-801363.2-803075.3-804787.7
 S, KJ/(KG)(K)   171.0200 171.0544 171.0888 171.1232 171.1574 171.1916 171.2256 171.2596

 M, (1/n)           1.011    1.011    1.011    1.011    1.011    1.011    1.011    1.011
 (dLV/dLP)t      -1.00337 -1.00333 -1.00329 -1.00326 -1.00322 -1.00318 -1.00315 -1.00311
 (dLV/dLT)p        1.0298   1.0294   1.0291   1.0288   1.0284   1.0281   1.0278   1.0275
 Cp, KJ/(KG)(K)   22.9900  22.9693  22.9493  22.9298  22.9110  22.8928  22.8751  22.8581
 GAMMAs            1.6023   1.6027   1.6031   1.6034   1.6038   1.6041   1.6044   1.6047
 SON VEL,M/SEC     9367.7   9376.0   9384.3   9392.5   9400.7   9408.9   9416.9   9425.0

 TRANSPORT PROPERTIES (GASES ONLY)
   CONDUCTIVITY IN UNITS OF MILLIWATTS/(CM)(K)

 VISC,MILLIPOISE  0.70121  0.70210  0.70300  0.70390  0.70480  0.70569  0.70659  0.70749

  WITH EQUILIBRIUM REACTIONS

 Cp, KJ/(KG)(K)   22.9900  22.9693  22.9493  22.9298  22.9110  22.8928  22.8751  22.8581
 CONDUCTIVITY     24.2108  24.2070  24.2038  24.2012  24.1991  24.1977  24.1968  24.1965
 PRANDTL NUMBER    0.6658   0.6662   0.6666   0.6669   0.6673   0.6676   0.6680   0.6684

  WITH FROZEN REACTIONS

 Cp, KJ/(KG)(K)   20.6191  20.6193  20.6196  20.6199  20.6202  20.6205  20.6209  20.6212
 CONDUCTIVITY     21.6589  21.6880  21.7170  21.7460  21.7751  21.8042  21.8333  21.8624
 PRANDTL NUMBER    0.6675   0.6675   0.6675   0.6674   0.6674   0.6674   0.6674   0.6673

 MOLE FRACTIONS

 *e-              0.00017  0.00017  0.00017  0.00018  0.00018  0.00018  0.00019  0.00019
 *H               0.99635  0.99638  0.99642  0.99645  0.99648  0.99651  0.99655  0.99658
 *H+              0.00017  0.00017  0.00017  0.00018  0.00018  0.00018  0.00019  0.00019
 *H2              0.00332  0.00328  0.00324  0.00320  0.00316  0.00312  0.00308  0.00304

  * THERMODYNAMIC PROPERTIES FITTED TO 20000.K

 NOTE. WEIGHT FRACTION OF FUEL IN TOTAL FUELS AND OF OXIDANT IN TOTAL OXIDANTS









               THERMODYNAMIC EQUILIBRIUM PROPERTIES AT ASSIGNED

                           TEMPERATURE AND PRESSURE

 CASE =                

             REACTANT                    WT FRACTION      ENERGY      TEMP
                                          (SEE NOTE)     KJ/KG-MOL      K  
             H2                           1.0000000         0.000      0.000

 O/F=    0.00000  %FUEL=100.000000  R,EQ.RATIO= 0.000000  PHI,EQ.RATIO= 0.000000

 THERMODYNAMIC PROPERTIES

 P, BAR            2.2500
 T, K             6740.00
 RHO, KG/CU M    4.0583-3
 H, KJ/KG        348018.1
 U, KJ/KG        292575.8
 G, KJ/KG       -806500.5
 S, KJ/(KG)(K)   171.2936

 M, (1/n)           1.011
 (dLV/dLP)t      -1.00308
 (dLV/dLT)p        1.0272
 Cp, KJ/(KG)(K)   22.8416
 GAMMAs            1.6049
 SON VEL,M/SEC     9433.0

 TRANSPORT PROPERTIES (GASES ONLY)
   CONDUCTIVITY IN UNITS OF MILLIWATTS/(CM)(K)

 VISC,MILLIPOISE  0.70839

  WITH EQUILIBRIUM REACTIONS

 Cp, KJ/(KG)(K)   22.8416
 CONDUCTIVITY     24.1968
 PRANDTL NUMBER    0.6687

  WITH FROZEN REACTIONS

 Cp, KJ/(KG)(K)   20.6215
 CONDUCTIVITY     21.8915
 PRANDTL NUMBER    0.6673

 MOLE FRACTIONS

 *e-              0.00019
 *H               0.99661
 *H+              0.00019
 *H2              0.00301

  * THERMODYNAMIC PROPERTIES FITTED TO 20000.K

 NOTE. WEIGHT FRACTION OF FUEL IN TOTAL FUELS AND OF OXIDANT IN TOTAL OXIDANTS



  
