
 *******************************************************************************

         NASA-GLENN CHEMICAL EQUILIBRIUM PROGRAM CEA2, MAY 21, 2004
                   BY  BONNIE MCBRIDE AND SANFORD GORDON
      REFS: NASA RP-1311, PART I, 1994 AND NASA RP-1311, PART II, 1996

 *******************************************************************************



  prob tp ions
  p,bar= 12.0,13.2,14.8,16.5,18.0,20.0,22.5,25.0,28.0,31.0,35.0,39.0,44.0,49.0,54
 .0
  t,k= 1500,1510,1520,1530,1540,1550,1560,1570,1580,1590,1600,1610,1620,1630,1640
  
  reac
  na H2                wt%=100.0000
  
  output short
  output siunits
  output transport
  
 end





               THERMODYNAMIC EQUILIBRIUM PROPERTIES AT ASSIGNED

                           TEMPERATURE AND PRESSURE

 CASE =                

             REACTANT                    WT FRACTION      ENERGY      TEMP
                                          (SEE NOTE)     KJ/KG-MOL      K  
             H2                           1.0000000         0.000      0.000

 O/F=    0.00000  %FUEL=100.000000  R,EQ.RATIO= 0.000000  PHI,EQ.RATIO= 0.000000

 THERMODYNAMIC PROPERTIES

 P, BAR            12.000   12.000   12.000   12.000   12.000   12.000   12.000   12.000
 T, K             1500.00  1510.00  1520.00  1530.00  1540.00  1550.00  1560.00  1570.00
 RHO, KG/CU M    1.9396-1 1.9268-1 1.9141-1 1.9016-1 1.8892-1 1.8771-1 1.8650-1 1.8531-1
 H, KJ/KG         18001.3  18161.7  18322.4  18483.3  18644.4  18805.7  18967.2  19129.0
 U, KJ/KG         11814.6  11933.7  12053.1  12172.8  12292.6  12412.7  12533.0  12653.5
 G, KJ/KG        -99703.0-100488.0-101274.3-102061.6-102850.0-103639.4-104429.9-105221.4
 S, KJ/(KG)(K)    78.4695  78.5760  78.6820  78.7875  78.8924  78.9968  79.1007  79.2041

 M, (1/n)           2.016    2.016    2.016    2.016    2.016    2.016    2.016    2.016
 (dLV/dLP)t      -1.00000 -1.00000 -1.00000 -1.00000 -1.00000 -1.00000 -1.00000 -1.00000
 (dLV/dLT)p        1.0000   1.0001   1.0001   1.0001   1.0001   1.0001   1.0001   1.0001
 Cp, KJ/(KG)(K)   16.0319  16.0542  16.0764  16.0987  16.1210  16.1434  16.1657  16.1881
 GAMMAs            1.3464   1.3458   1.3451   1.3445   1.3439   1.3432   1.3426   1.3420
 SON VEL,M/SEC     2886.2   2895.1   2904.0   2912.8   2921.6   2930.4   2939.2   2947.9

 TRANSPORT PROPERTIES (GASES ONLY)
   CONDUCTIVITY IN UNITS OF MILLIWATTS/(CM)(K)

 VISC,MILLIPOISE  0.27270  0.27398  0.27525  0.27652  0.27779  0.27906  0.28033  0.28159

  WITH EQUILIBRIUM REACTIONS

 Cp, KJ/(KG)(K)   16.0319  16.0542  16.0764  16.0987  16.1210  16.1434  16.1657  16.1881
 CONDUCTIVITY      6.2395   6.2766   6.3138   6.3512   6.3887   6.4263   6.4641   6.5019
 PRANDTL NUMBER    0.7007   0.7008   0.7009   0.7009   0.7010   0.7010   0.7011   0.7011

  WITH FROZEN REACTIONS

 Cp, KJ/(KG)(K)   16.0251  16.0466  16.0680  16.0894  16.1107  16.1319  16.1531  16.1742
 CONDUCTIVITY      6.2346   6.2711   6.3077   6.3444   6.3811   6.4179   6.4547   6.4915
 PRANDTL NUMBER    0.7009   0.7011   0.7012   0.7013   0.7014   0.7014   0.7015   0.7016

 MOLE FRACTIONS

 *H               0.00001  0.00001  0.00001  0.00001  0.00001  0.00001  0.00001  0.00001
 *H2              0.99999  0.99999  0.99999  0.99999  0.99999  0.99999  0.99999  0.99999

  * THERMODYNAMIC PROPERTIES FITTED TO 20000.K

 NOTE. WEIGHT FRACTION OF FUEL IN TOTAL FUELS AND OF OXIDANT IN TOTAL OXIDANTS









               THERMODYNAMIC EQUILIBRIUM PROPERTIES AT ASSIGNED

                           TEMPERATURE AND PRESSURE

 CASE =                

             REACTANT                    WT FRACTION      ENERGY      TEMP
                                          (SEE NOTE)     KJ/KG-MOL      K  
             H2                           1.0000000         0.000      0.000

 O/F=    0.00000  %FUEL=100.000000  R,EQ.RATIO= 0.000000  PHI,EQ.RATIO= 0.000000

 THERMODYNAMIC PROPERTIES

 P, BAR            12.000   12.000   12.000   12.000   12.000   12.000   12.000   13.200
 T, K             1580.00  1590.00  1600.00  1610.00  1620.00  1630.00  1640.00  1500.00
 RHO, KG/CU M    1.8414-1 1.8298-1 1.8184-1 1.8071-1 1.7959-1 1.7849-1 1.7740-1 2.1336-1
 H, KJ/KG         19291.0  19453.2  19615.7  19778.3  19941.2  20104.3  20267.7  18001.3
 U, KJ/KG         12774.3  12895.2  13016.4  13137.8  13259.5  13381.4  13503.5  11814.5
 G, KJ/KG       -106014.0-106807.6-107602.2-108397.8-109194.4-109992.1-110790.7 -99113.1
 S, KJ/(KG)(K)    79.3070  79.4093  79.5111  79.6125  79.7134  79.8137  79.9137  78.0763

 M, (1/n)           2.016    2.016    2.016    2.016    2.016    2.016    2.016    2.016
 (dLV/dLP)t      -1.00000 -1.00000 -1.00000 -1.00000 -1.00000 -1.00000 -1.00000 -1.00000
 (dLV/dLT)p        1.0001   1.0001   1.0001   1.0001   1.0002   1.0002   1.0002   1.0000
 Cp, KJ/(KG)(K)   16.2106  16.2331  16.2556  16.2782  16.3009  16.3237  16.3466  16.0316
 GAMMAs            1.3414   1.3407   1.3401   1.3395   1.3389   1.3383   1.3376   1.3464
 SON VEL,M/SEC     2956.6   2965.2   2973.8   2982.4   2991.0   2999.5   3008.0   2886.2

 TRANSPORT PROPERTIES (GASES ONLY)
   CONDUCTIVITY IN UNITS OF MILLIWATTS/(CM)(K)

 VISC,MILLIPOISE  0.28286  0.28412  0.28538  0.28664  0.28790  0.28916  0.29042  0.27270

  WITH EQUILIBRIUM REACTIONS

 Cp, KJ/(KG)(K)   16.2106  16.2331  16.2556  16.2782  16.3009  16.3237  16.3466  16.0316
 CONDUCTIVITY      6.5398   6.5779   6.6161   6.6545   6.6929   6.7316   6.7704   6.2391
 PRANDTL NUMBER    0.7011   0.7012   0.7012   0.7012   0.7012   0.7012   0.7012   0.7007

  WITH FROZEN REACTIONS

 Cp, KJ/(KG)(K)   16.1952  16.2162  16.2370  16.2578  16.2786  16.2992  16.3198  16.0251
 CONDUCTIVITY      6.5283   6.5652   6.6020   6.6389   6.6758   6.7128   6.7497   6.2344
 PRANDTL NUMBER    0.7017   0.7018   0.7019   0.7020   0.7020   0.7021   0.7022   0.7010

 MOLE FRACTIONS

 *H               0.00001  0.00001  0.00002  0.00002  0.00002  0.00002  0.00002  0.00000
 *H2              0.99999  0.99999  0.99998  0.99998  0.99998  0.99998  0.99998  0.99999

  * THERMODYNAMIC PROPERTIES FITTED TO 20000.K

 NOTE. WEIGHT FRACTION OF FUEL IN TOTAL FUELS AND OF OXIDANT IN TOTAL OXIDANTS









               THERMODYNAMIC EQUILIBRIUM PROPERTIES AT ASSIGNED

                           TEMPERATURE AND PRESSURE

 CASE =                

             REACTANT                    WT FRACTION      ENERGY      TEMP
                                          (SEE NOTE)     KJ/KG-MOL      K  
             H2                           1.0000000         0.000      0.000

 O/F=    0.00000  %FUEL=100.000000  R,EQ.RATIO= 0.000000  PHI,EQ.RATIO= 0.000000

 THERMODYNAMIC PROPERTIES

 P, BAR            13.200   13.200   13.200   13.200   13.200   13.200   13.200   13.200
 T, K             1510.00  1520.00  1530.00  1540.00  1550.00  1560.00  1570.00  1580.00
 RHO, KG/CU M    2.1195-1 2.1055-1 2.0918-1 2.0782-1 2.0648-1 2.0515-1 2.0385-1 2.0256-1
 H, KJ/KG         18161.7  18322.4  18483.2  18644.3  18805.6  18967.2  19128.9  19290.9
 U, KJ/KG         11933.7  12053.1  12172.7  12292.6  12412.6  12532.9  12653.5  12774.2
 G, KJ/KG        -99894.4-100676.7-101460.1-102244.6-103030.1-103816.7-104604.3-105392.9
 S, KJ/(KG)(K)    78.1828  78.2889  78.3944  78.4993  78.6037  78.7076  78.8110  78.9138

 M, (1/n)           2.016    2.016    2.016    2.016    2.016    2.016    2.016    2.016
 (dLV/dLP)t      -1.00000 -1.00000 -1.00000 -1.00000 -1.00000 -1.00000 -1.00000 -1.00000
 (dLV/dLT)p        1.0000   1.0001   1.0001   1.0001   1.0001   1.0001   1.0001   1.0001
 Cp, KJ/(KG)(K)   16.0538  16.0760  16.0983  16.1205  16.1428  16.1651  16.1875  16.2099
 GAMMAs            1.3458   1.3452   1.3445   1.3439   1.3433   1.3426   1.3420   1.3414
 SON VEL,M/SEC     2895.1   2904.0   2912.8   2921.6   2930.4   2939.2   2947.9   2956.6

 TRANSPORT PROPERTIES (GASES ONLY)
   CONDUCTIVITY IN UNITS OF MILLIWATTS/(CM)(K)

 VISC,MILLIPOISE  0.27398  0.27525  0.27652  0.27779  0.27906  0.28033  0.28159  0.28286

  WITH EQUILIBRIUM REACTIONS

 Cp, KJ/(KG)(K)   16.0538  16.0760  16.0983  16.1205  16.1428  16.1651  16.1875  16.2099
 CONDUCTIVITY      6.2762   6.3135   6.3509   6.3884   6.4259   6.4636   6.5014   6.5393
 PRANDTL NUMBER    0.7008   0.7009   0.7009   0.7010   0.7010   0.7011   0.7011   0.7012

  WITH FROZEN REACTIONS

 Cp, KJ/(KG)(K)   16.0466  16.0680  16.0894  16.1107  16.1319  16.1531  16.1742  16.1952
 CONDUCTIVITY      6.2710   6.3077   6.3444   6.3811   6.4179   6.4547   6.4915   6.5283
 PRANDTL NUMBER    0.7011   0.7012   0.7013   0.7014   0.7014   0.7015   0.7016   0.7017

 MOLE FRACTIONS

 *H               0.00001  0.00001  0.00001  0.00001  0.00001  0.00001  0.00001  0.00001
 *H2              0.99999  0.99999  0.99999  0.99999  0.99999  0.99999  0.99999  0.99999

  * THERMODYNAMIC PROPERTIES FITTED TO 20000.K

 NOTE. WEIGHT FRACTION OF FUEL IN TOTAL FUELS AND OF OXIDANT IN TOTAL OXIDANTS









               THERMODYNAMIC EQUILIBRIUM PROPERTIES AT ASSIGNED

                           TEMPERATURE AND PRESSURE

 CASE =                

             REACTANT                    WT FRACTION      ENERGY      TEMP
                                          (SEE NOTE)     KJ/KG-MOL      K  
             H2                           1.0000000         0.000      0.000

 O/F=    0.00000  %FUEL=100.000000  R,EQ.RATIO= 0.000000  PHI,EQ.RATIO= 0.000000

 THERMODYNAMIC PROPERTIES

 P, BAR            13.200   13.200   13.200   13.200   13.200   13.200   14.800   14.800
 T, K             1590.00  1600.00  1610.00  1620.00  1630.00  1640.00  1500.00  1510.00
 RHO, KG/CU M    2.0128-1 2.0002-1 1.9878-1 1.9755-1 1.9634-1 1.9514-1 2.3922-1 2.3764-1
 H, KJ/KG         19453.1  19615.6  19778.2  19941.1  20104.2  20267.6  18001.3  18161.7
 U, KJ/KG         12895.2  13016.3  13137.7  13259.4  13381.2  13503.3  11814.5  11933.7
 G, KJ/KG       -106182.5-106973.2-107764.9-108557.6-109351.3-110146.0 -98405.3 -99181.8
 S, KJ/(KG)(K)    79.0161  79.1180  79.2193  79.3202  79.4206  79.5205  77.6044  77.7109

 M, (1/n)           2.016    2.016    2.016    2.016    2.016    2.016    2.016    2.016
 (dLV/dLP)t      -1.00000 -1.00000 -1.00000 -1.00000 -1.00000 -1.00000 -1.00000 -1.00000
 (dLV/dLT)p        1.0001   1.0001   1.0001   1.0002   1.0002   1.0002   1.0000   1.0000
 Cp, KJ/(KG)(K)   16.2323  16.2548  16.2773  16.2999  16.3226  16.3453  16.0312  16.0534
 GAMMAs            1.3408   1.3401   1.3395   1.3389   1.3383   1.3377   1.3464   1.3458
 SON VEL,M/SEC     2965.2   2973.9   2982.5   2991.0   2999.5   3008.0   2886.2   2895.1

 TRANSPORT PROPERTIES (GASES ONLY)
   CONDUCTIVITY IN UNITS OF MILLIWATTS/(CM)(K)

 VISC,MILLIPOISE  0.28412  0.28538  0.28664  0.28790  0.28916  0.29042  0.27270  0.27398

  WITH EQUILIBRIUM REACTIONS

 Cp, KJ/(KG)(K)   16.2323  16.2548  16.2773  16.2999  16.3226  16.3453  16.0312  16.0534
 CONDUCTIVITY      6.5773   6.6154   6.6537   6.6921   6.7307   6.7695   6.2388   6.2759
 PRANDTL NUMBER    0.7012   0.7012   0.7012   0.7012   0.7012   0.7012   0.7007   0.7008

  WITH FROZEN REACTIONS

 Cp, KJ/(KG)(K)   16.2162  16.2370  16.2578  16.2786  16.2992  16.3198  16.0251  16.0466
 CONDUCTIVITY      6.5652   6.6020   6.6389   6.6758   6.7128   6.7497   6.2344   6.2710
 PRANDTL NUMBER    0.7018   0.7019   0.7020   0.7020   0.7021   0.7022   0.7010   0.7011

 MOLE FRACTIONS

 *H               0.00001  0.00001  0.00002  0.00002  0.00002  0.00002  0.00000  0.00001
 *H2              0.99999  0.99999  0.99998  0.99998  0.99998  0.99998  0.99999  0.99999

  * THERMODYNAMIC PROPERTIES FITTED TO 20000.K

 NOTE. WEIGHT FRACTION OF FUEL IN TOTAL FUELS AND OF OXIDANT IN TOTAL OXIDANTS









               THERMODYNAMIC EQUILIBRIUM PROPERTIES AT ASSIGNED

                           TEMPERATURE AND PRESSURE

 CASE =                

             REACTANT                    WT FRACTION      ENERGY      TEMP
                                          (SEE NOTE)     KJ/KG-MOL      K  
             H2                           1.0000000         0.000      0.000

 O/F=    0.00000  %FUEL=100.000000  R,EQ.RATIO= 0.000000  PHI,EQ.RATIO= 0.000000

 THERMODYNAMIC PROPERTIES

 P, BAR            14.800   14.800   14.800   14.800   14.800   14.800   14.800   14.800
 T, K             1520.00  1530.00  1540.00  1550.00  1560.00  1570.00  1580.00  1590.00
 RHO, KG/CU M    2.3607-1 2.3453-1 2.3301-1 2.3150-1 2.3002-1 2.2855-1 2.2711-1 2.2568-1
 H, KJ/KG         18322.3  18483.2  18644.3  18805.6  18967.1  19128.9  19290.9  19453.1
 U, KJ/KG         12053.1  12172.7  12292.5  12412.6  12532.9  12653.4  12774.1  12895.1
 G, KJ/KG        -99959.5-100738.1-101517.9-102298.7-103080.5-103863.4-104647.3-105432.2
 S, KJ/(KG)(K)    77.8170  77.9224  78.0274  78.1318  78.2357  78.3390  78.4419  78.5442

 M, (1/n)           2.016    2.016    2.016    2.016    2.016    2.016    2.016    2.016
 (dLV/dLP)t      -1.00000 -1.00000 -1.00000 -1.00000 -1.00000 -1.00000 -1.00000 -1.00000
 (dLV/dLT)p        1.0001   1.0001   1.0001   1.0001   1.0001   1.0001   1.0001   1.0001
 Cp, KJ/(KG)(K)   16.0756  16.0978  16.1200  16.1422  16.1645  16.1867  16.2090  16.2314
 GAMMAs            1.3452   1.3445   1.3439   1.3433   1.3426   1.3420   1.3414   1.3408
 SON VEL,M/SEC     2904.0   2912.8   2921.7   2930.4   2939.2   2947.9   2956.6   2965.3

 TRANSPORT PROPERTIES (GASES ONLY)
   CONDUCTIVITY IN UNITS OF MILLIWATTS/(CM)(K)

 VISC,MILLIPOISE  0.27525  0.27652  0.27779  0.27906  0.28033  0.28159  0.28286  0.28412

  WITH EQUILIBRIUM REACTIONS

 Cp, KJ/(KG)(K)   16.0756  16.0978  16.1200  16.1422  16.1645  16.1867  16.2090  16.2314
 CONDUCTIVITY      6.3132   6.3505   6.3880   6.4255   6.4631   6.5008   6.5387   6.5766
 PRANDTL NUMBER    0.7009   0.7010   0.7010   0.7011   0.7011   0.7012   0.7012   0.7012

  WITH FROZEN REACTIONS

 Cp, KJ/(KG)(K)   16.0680  16.0894  16.1107  16.1319  16.1531  16.1742  16.1952  16.2162
 CONDUCTIVITY      6.3077   6.3444   6.3811   6.4179   6.4547   6.4915   6.5283   6.5652
 PRANDTL NUMBER    0.7012   0.7013   0.7014   0.7014   0.7015   0.7016   0.7017   0.7018

 MOLE FRACTIONS

 *H               0.00001  0.00001  0.00001  0.00001  0.00001  0.00001  0.00001  0.00001
 *H2              0.99999  0.99999  0.99999  0.99999  0.99999  0.99999  0.99999  0.99999

  * THERMODYNAMIC PROPERTIES FITTED TO 20000.K

 NOTE. WEIGHT FRACTION OF FUEL IN TOTAL FUELS AND OF OXIDANT IN TOTAL OXIDANTS









               THERMODYNAMIC EQUILIBRIUM PROPERTIES AT ASSIGNED

                           TEMPERATURE AND PRESSURE

 CASE =                

             REACTANT                    WT FRACTION      ENERGY      TEMP
                                          (SEE NOTE)     KJ/KG-MOL      K  
             H2                           1.0000000         0.000      0.000

 O/F=    0.00000  %FUEL=100.000000  R,EQ.RATIO= 0.000000  PHI,EQ.RATIO= 0.000000

 THERMODYNAMIC PROPERTIES

 P, BAR            14.800   14.800   14.800   14.800   14.800   16.500   16.500   16.500
 T, K             1600.00  1610.00  1620.00  1630.00  1640.00  1500.00  1510.00  1520.00
 RHO, KG/CU M    2.2427-1 2.2288-1 2.2150-1 2.2014-1 2.1880-1 2.6670-1 2.6493-1 2.6319-1
 H, KJ/KG         19615.5  19778.1  19941.0  20104.1  20267.4  18001.2  18161.6  18322.3
 U, KJ/KG         13016.2  13137.6  13259.3  13381.1  13503.2  11814.5  11933.6  12053.0
 G, KJ/KG       -106218.2-107005.1-107793.1-108582.1-109372.1 -97732.6 -98504.6 -99277.8
 S, KJ/(KG)(K)    78.6460  78.7474  78.8482  78.9486  79.0485  77.1559  77.2624  77.3685

 M, (1/n)           2.016    2.016    2.016    2.016    2.016    2.016    2.016    2.016
 (dLV/dLP)t      -1.00000 -1.00000 -1.00000 -1.00000 -1.00000 -1.00000 -1.00000 -1.00000
 (dLV/dLT)p        1.0001   1.0001   1.0001   1.0002   1.0002   1.0000   1.0000   1.0000
 Cp, KJ/(KG)(K)   16.2538  16.2762  16.2987  16.3213  16.3439  16.0309  16.0530  16.0752
 GAMMAs            1.3402   1.3395   1.3389   1.3383   1.3377   1.3465   1.3458   1.3452
 SON VEL,M/SEC     2973.9   2982.5   2991.0   2999.6   3008.1   2886.2   2895.1   2904.0

 TRANSPORT PROPERTIES (GASES ONLY)
   CONDUCTIVITY IN UNITS OF MILLIWATTS/(CM)(K)

 VISC,MILLIPOISE  0.28538  0.28664  0.28790  0.28916  0.29042  0.27270  0.27398  0.27525

  WITH EQUILIBRIUM REACTIONS

 Cp, KJ/(KG)(K)   16.2538  16.2762  16.2987  16.3213  16.3439  16.0309  16.0530  16.0752
 CONDUCTIVITY      6.6147   6.6529   6.6912   6.7297   6.7684   6.2386   6.2757   6.3129
 PRANDTL NUMBER    0.7012   0.7013   0.7013   0.7013   0.7013   0.7008   0.7008   0.7009

  WITH FROZEN REACTIONS

 Cp, KJ/(KG)(K)   16.2370  16.2578  16.2786  16.2992  16.3198  16.0251  16.0466  16.0680
 CONDUCTIVITY      6.6020   6.6389   6.6758   6.7128   6.7497   6.2344   6.2710   6.3077
 PRANDTL NUMBER    0.7019   0.7020   0.7020   0.7021   0.7022   0.7010   0.7011   0.7012

 MOLE FRACTIONS

 *H               0.00001  0.00002  0.00002  0.00002  0.00002  0.00000  0.00000  0.00001
 *H2              0.99999  0.99998  0.99998  0.99998  0.99998  0.99999  0.99999  0.99999

  * THERMODYNAMIC PROPERTIES FITTED TO 20000.K

 NOTE. WEIGHT FRACTION OF FUEL IN TOTAL FUELS AND OF OXIDANT IN TOTAL OXIDANTS









               THERMODYNAMIC EQUILIBRIUM PROPERTIES AT ASSIGNED

                           TEMPERATURE AND PRESSURE

 CASE =                

             REACTANT                    WT FRACTION      ENERGY      TEMP
                                          (SEE NOTE)     KJ/KG-MOL      K  
             H2                           1.0000000         0.000      0.000

 O/F=    0.00000  %FUEL=100.000000  R,EQ.RATIO= 0.000000  PHI,EQ.RATIO= 0.000000

 THERMODYNAMIC PROPERTIES

 P, BAR            16.500   16.500   16.500   16.500   16.500   16.500   16.500   16.500
 T, K             1530.00  1540.00  1550.00  1560.00  1570.00  1580.00  1590.00  1600.00
 RHO, KG/CU M    2.6147-1 2.5977-1 2.5810-1 2.5644-1 2.5481-1 2.5319-1 2.5160-1 2.5003-1
 H, KJ/KG         18483.1  18644.2  18805.5  18967.1  19128.8  19290.8  19453.0  19615.4
 U, KJ/KG         12172.7  12292.5  12412.5  12532.8  12653.3  12774.1  12895.0  13016.2
 G, KJ/KG       -100052.0-100827.2-101603.6-102380.9-103159.3-103938.7-104719.2-105500.6
 S, KJ/(KG)(K)    77.4739  77.5789  77.6833  77.7872  77.8905  77.9934  78.0957  78.1975

 M, (1/n)           2.016    2.016    2.016    2.016    2.016    2.016    2.016    2.016
 (dLV/dLP)t      -1.00000 -1.00000 -1.00000 -1.00000 -1.00000 -1.00000 -1.00000 -1.00000
 (dLV/dLT)p        1.0001   1.0001   1.0001   1.0001   1.0001   1.0001   1.0001   1.0001
 Cp, KJ/(KG)(K)   16.0973  16.1195  16.1417  16.1639  16.1861  16.2083  16.2306  16.2529
 GAMMAs            1.3445   1.3439   1.3433   1.3427   1.3420   1.3414   1.3408   1.3402
 SON VEL,M/SEC     2912.9   2921.7   2930.5   2939.2   2947.9   2956.6   2965.3   2973.9

 TRANSPORT PROPERTIES (GASES ONLY)
   CONDUCTIVITY IN UNITS OF MILLIWATTS/(CM)(K)

 VISC,MILLIPOISE  0.27652  0.27779  0.27906  0.28033  0.28159  0.28286  0.28412  0.28538

  WITH EQUILIBRIUM REACTIONS

 Cp, KJ/(KG)(K)   16.0973  16.1195  16.1417  16.1639  16.1861  16.2083  16.2306  16.2529
 CONDUCTIVITY      6.3502   6.3876   6.4251   6.4627   6.5003   6.5381   6.5760   6.6140
 PRANDTL NUMBER    0.7010   0.7010   0.7011   0.7011   0.7012   0.7012   0.7013   0.7013

  WITH FROZEN REACTIONS

 Cp, KJ/(KG)(K)   16.0894  16.1107  16.1319  16.1531  16.1742  16.1952  16.2162  16.2370
 CONDUCTIVITY      6.3444   6.3811   6.4179   6.4547   6.4915   6.5283   6.5652   6.6020
 PRANDTL NUMBER    0.7013   0.7014   0.7014   0.7015   0.7016   0.7017   0.7018   0.7019

 MOLE FRACTIONS

 *H               0.00001  0.00001  0.00001  0.00001  0.00001  0.00001  0.00001  0.00001
 *H2              0.99999  0.99999  0.99999  0.99999  0.99999  0.99999  0.99999  0.99999

  * THERMODYNAMIC PROPERTIES FITTED TO 20000.K

 NOTE. WEIGHT FRACTION OF FUEL IN TOTAL FUELS AND OF OXIDANT IN TOTAL OXIDANTS









               THERMODYNAMIC EQUILIBRIUM PROPERTIES AT ASSIGNED

                           TEMPERATURE AND PRESSURE

 CASE =                

             REACTANT                    WT FRACTION      ENERGY      TEMP
                                          (SEE NOTE)     KJ/KG-MOL      K  
             H2                           1.0000000         0.000      0.000

 O/F=    0.00000  %FUEL=100.000000  R,EQ.RATIO= 0.000000  PHI,EQ.RATIO= 0.000000

 THERMODYNAMIC PROPERTIES

 P, BAR            16.500   16.500   16.500   16.500   18.000   18.000   18.000   18.000
 T, K             1610.00  1620.00  1630.00  1640.00  1500.00  1510.00  1520.00  1530.00
 RHO, KG/CU M    2.4848-1 2.4694-1 2.4543-1 2.4393-1 2.9094-1 2.8902-1 2.8712-1 2.8524-1
 H, KJ/KG         19778.0  19940.9  20104.0  20267.3  18001.2  18161.6  18322.3  18483.1
 U, KJ/KG         13137.6  13259.2  13381.0  13503.1  11814.5  11933.6  12053.0  12172.6
 G, KJ/KG       -106283.1-107066.6-107851.1-108636.6 -97194.3 -97962.7 -98732.3 -99502.9
 S, KJ/(KG)(K)    78.2988  78.3997  78.5001  78.5999  76.7970  76.9035  77.0096  77.1150

 M, (1/n)           2.016    2.016    2.016    2.016    2.016    2.016    2.016    2.016
 (dLV/dLP)t      -1.00000 -1.00000 -1.00000 -1.00000 -1.00000 -1.00000 -1.00000 -1.00000
 (dLV/dLT)p        1.0001   1.0001   1.0002   1.0002   1.0000   1.0000   1.0000   1.0001
 Cp, KJ/(KG)(K)   16.2752  16.2976  16.3201  16.3426  16.0306  16.0528  16.0749  16.0970
 GAMMAs            1.3396   1.3389   1.3383   1.3377   1.3465   1.3458   1.3452   1.3446
 SON VEL,M/SEC     2982.5   2991.1   2999.6   3008.1   2886.2   2895.1   2904.0   2912.9

 TRANSPORT PROPERTIES (GASES ONLY)
   CONDUCTIVITY IN UNITS OF MILLIWATTS/(CM)(K)

 VISC,MILLIPOISE  0.28664  0.28790  0.28916  0.29042  0.27270  0.27398  0.27525  0.27652

  WITH EQUILIBRIUM REACTIONS

 Cp, KJ/(KG)(K)   16.2752  16.2976  16.3201  16.3426  16.0306  16.0528  16.0749  16.0970
 CONDUCTIVITY      6.6522   6.6904   6.7288   6.7674   6.2384   6.2755   6.3127   6.3500
 PRANDTL NUMBER    0.7013   0.7013   0.7013   0.7013   0.7008   0.7008   0.7009   0.7010

  WITH FROZEN REACTIONS

 Cp, KJ/(KG)(K)   16.2578  16.2786  16.2992  16.3198  16.0251  16.0466  16.0680  16.0894
 CONDUCTIVITY      6.6389   6.6758   6.7128   6.7497   6.2344   6.2710   6.3077   6.3444
 PRANDTL NUMBER    0.7020   0.7020   0.7021   0.7022   0.7010   0.7011   0.7012   0.7013

 MOLE FRACTIONS

 *H               0.00001  0.00002  0.00002  0.00002  0.00000  0.00000  0.00001  0.00001
 *H2              0.99999  0.99998  0.99998  0.99998  0.99999  1.00000  0.99999  0.99999

  * THERMODYNAMIC PROPERTIES FITTED TO 20000.K

 NOTE. WEIGHT FRACTION OF FUEL IN TOTAL FUELS AND OF OXIDANT IN TOTAL OXIDANTS









               THERMODYNAMIC EQUILIBRIUM PROPERTIES AT ASSIGNED

                           TEMPERATURE AND PRESSURE

 CASE =                

             REACTANT                    WT FRACTION      ENERGY      TEMP
                                          (SEE NOTE)     KJ/KG-MOL      K  
             H2                           1.0000000         0.000      0.000

 O/F=    0.00000  %FUEL=100.000000  R,EQ.RATIO= 0.000000  PHI,EQ.RATIO= 0.000000

 THERMODYNAMIC PROPERTIES

 P, BAR            18.000   18.000   18.000   18.000   18.000   18.000   18.000   18.000
 T, K             1540.00  1550.00  1560.00  1570.00  1580.00  1590.00  1600.00  1610.00
 RHO, KG/CU M    2.8339-1 2.8156-1 2.7975-1 2.7797-1 2.7621-1 2.7447-1 2.7276-1 2.7106-1
 H, KJ/KG         18644.2  18805.5  18967.0  19128.8  19290.7  19452.9  19615.3  19778.0
 U, KJ/KG         12292.5  12412.5  12532.8  12653.3  12774.0  12894.9  13016.1  13137.5
 G, KJ/KG       -100274.6-101047.3-101821.1-102595.8-103371.7-104148.5-104926.4-105705.3
 S, KJ/(KG)(K)    77.2200  77.3244  77.4283  77.5316  77.6344  77.7368  77.8386  77.9399

 M, (1/n)           2.016    2.016    2.016    2.016    2.016    2.016    2.016    2.016
 (dLV/dLP)t      -1.00000 -1.00000 -1.00000 -1.00000 -1.00000 -1.00000 -1.00000 -1.00000
 (dLV/dLT)p        1.0001   1.0001   1.0001   1.0001   1.0001   1.0001   1.0001   1.0001
 Cp, KJ/(KG)(K)   16.1191  16.1413  16.1634  16.1856  16.2077  16.2300  16.2522  16.2745
 GAMMAs            1.3439   1.3433   1.3427   1.3420   1.3414   1.3408   1.3402   1.3396
 SON VEL,M/SEC     2921.7   2930.5   2939.2   2947.9   2956.6   2965.3   2973.9   2982.5

 TRANSPORT PROPERTIES (GASES ONLY)
   CONDUCTIVITY IN UNITS OF MILLIWATTS/(CM)(K)

 VISC,MILLIPOISE  0.27779  0.27906  0.28033  0.28159  0.28286  0.28412  0.28538  0.28664

  WITH EQUILIBRIUM REACTIONS

 Cp, KJ/(KG)(K)   16.1191  16.1413  16.1634  16.1856  16.2077  16.2300  16.2522  16.2745
 CONDUCTIVITY      6.3873   6.4248   6.4623   6.5000   6.5377   6.5755   6.6135   6.6516
 PRANDTL NUMBER    0.7010   0.7011   0.7011   0.7012   0.7012   0.7013   0.7013   0.7013

  WITH FROZEN REACTIONS

 Cp, KJ/(KG)(K)   16.1107  16.1319  16.1531  16.1742  16.1952  16.2161  16.2370  16.2578
 CONDUCTIVITY      6.3811   6.4179   6.4547   6.4915   6.5283   6.5652   6.6020   6.6389
 PRANDTL NUMBER    0.7014   0.7014   0.7015   0.7016   0.7017   0.7018   0.7019   0.7020

 MOLE FRACTIONS

 *H               0.00001  0.00001  0.00001  0.00001  0.00001  0.00001  0.00001  0.00001
 *H2              0.99999  0.99999  0.99999  0.99999  0.99999  0.99999  0.99999  0.99999

  * THERMODYNAMIC PROPERTIES FITTED TO 20000.K

 NOTE. WEIGHT FRACTION OF FUEL IN TOTAL FUELS AND OF OXIDANT IN TOTAL OXIDANTS









               THERMODYNAMIC EQUILIBRIUM PROPERTIES AT ASSIGNED

                           TEMPERATURE AND PRESSURE

 CASE =                

             REACTANT                    WT FRACTION      ENERGY      TEMP
                                          (SEE NOTE)     KJ/KG-MOL      K  
             H2                           1.0000000         0.000      0.000

 O/F=    0.00000  %FUEL=100.000000  R,EQ.RATIO= 0.000000  PHI,EQ.RATIO= 0.000000

 THERMODYNAMIC PROPERTIES

 P, BAR            18.000   18.000   18.000   20.000   20.000   20.000   20.000   20.000
 T, K             1620.00  1630.00  1640.00  1500.00  1510.00  1520.00  1530.00  1540.00
 RHO, KG/CU M    2.6939-1 2.6774-1 2.6611-1 3.2327-1 3.2113-1 3.1902-1 3.1693-1 3.1487-1
 H, KJ/KG         19940.8  20103.9  20267.2  18001.2  18161.6  18322.2  18483.1  18644.2
 U, KJ/KG         13259.1  13380.9  13503.0  11814.4  11933.6  12053.0  12172.6  12292.4
 G, KJ/KG       -106485.2-107266.1-108048.0 -96542.5 -97306.5 -98071.7 -98838.0 -99605.3
 S, KJ/(KG)(K)    78.0408  78.1411  78.2410  76.3624  76.4690  76.5750  76.6805  76.7854

 M, (1/n)           2.016    2.016    2.016    2.016    2.016    2.016    2.016    2.016
 (dLV/dLP)t      -1.00000 -1.00000 -1.00000 -1.00000 -1.00000 -1.00000 -1.00000 -1.00000
 (dLV/dLT)p        1.0001   1.0001   1.0002   1.0000   1.0000   1.0000   1.0000   1.0001
 Cp, KJ/(KG)(K)   16.2968  16.3192  16.3416  16.0304  16.0524  16.0745  16.0966  16.1187
 GAMMAs            1.3390   1.3384   1.3377   1.3465   1.3458   1.3452   1.3446   1.3439
 SON VEL,M/SEC     2991.1   2999.6   3008.1   2886.2   2895.1   2904.0   2912.9   2921.7

 TRANSPORT PROPERTIES (GASES ONLY)
   CONDUCTIVITY IN UNITS OF MILLIWATTS/(CM)(K)

 VISC,MILLIPOISE  0.28790  0.28916  0.29042  0.27270  0.27398  0.27525  0.27652  0.27779

  WITH EQUILIBRIUM REACTIONS

 Cp, KJ/(KG)(K)   16.2968  16.3192  16.3416  16.0304  16.0524  16.0745  16.0966  16.1187
 CONDUCTIVITY      6.6898   6.7281   6.7666   6.2382   6.2752   6.3124   6.3497   6.3870
 PRANDTL NUMBER    0.7014   0.7014   0.7014   0.7008   0.7009   0.7009   0.7010   0.7011

  WITH FROZEN REACTIONS

 Cp, KJ/(KG)(K)   16.2786  16.2992  16.3198  16.0251  16.0466  16.0680  16.0894  16.1107
 CONDUCTIVITY      6.6758   6.7128   6.7497   6.2344   6.2710   6.3077   6.3444   6.3811
 PRANDTL NUMBER    0.7020   0.7021   0.7022   0.7010   0.7011   0.7012   0.7013   0.7014

 MOLE FRACTIONS

 *H               0.00002  0.00002  0.00002  0.00000  0.00000  0.00000  0.00001  0.00001
 *H2              0.99998  0.99998  0.99998  1.00000  1.00000  0.99999  0.99999  0.99999

  * THERMODYNAMIC PROPERTIES FITTED TO 20000.K

 NOTE. WEIGHT FRACTION OF FUEL IN TOTAL FUELS AND OF OXIDANT IN TOTAL OXIDANTS









               THERMODYNAMIC EQUILIBRIUM PROPERTIES AT ASSIGNED

                           TEMPERATURE AND PRESSURE

 CASE =                

             REACTANT                    WT FRACTION      ENERGY      TEMP
                                          (SEE NOTE)     KJ/KG-MOL      K  
             H2                           1.0000000         0.000      0.000

 O/F=    0.00000  %FUEL=100.000000  R,EQ.RATIO= 0.000000  PHI,EQ.RATIO= 0.000000

 THERMODYNAMIC PROPERTIES

 P, BAR            20.000   20.000   20.000   20.000   20.000   20.000   20.000   20.000
 T, K             1550.00  1560.00  1570.00  1580.00  1590.00  1600.00  1610.00  1620.00
 RHO, KG/CU M    3.1284-1 3.1084-1 3.0886-1 3.0690-1 3.0497-1 3.0307-1 3.0118-1 2.9932-1
 H, KJ/KG         18805.5  18967.0  19128.7  19290.7  19452.9  19615.3  19777.9  19940.7
 U, KJ/KG         12412.5  12532.7  12653.2  12773.9  12894.9  13016.0  13137.4  13259.0
 G, KJ/KG       -100373.7-101143.1-101913.6-102685.1-103457.6-104231.1-105005.7-105781.2
 S, KJ/(KG)(K)    76.8898  76.9937  77.0970  77.1998  77.3022  77.4040  77.5053  77.6061

 M, (1/n)           2.016    2.016    2.016    2.016    2.016    2.016    2.016    2.016
 (dLV/dLP)t      -1.00000 -1.00000 -1.00000 -1.00000 -1.00000 -1.00000 -1.00000 -1.00000
 (dLV/dLT)p        1.0001   1.0001   1.0001   1.0001   1.0001   1.0001   1.0001   1.0001
 Cp, KJ/(KG)(K)   16.1408  16.1629  16.1850  16.2071  16.2293  16.2514  16.2736  16.2959
 GAMMAs            1.3433   1.3427   1.3421   1.3414   1.3408   1.3402   1.3396   1.3390
 SON VEL,M/SEC     2930.5   2939.2   2948.0   2956.7   2965.3   2973.9   2982.5   2991.1

 TRANSPORT PROPERTIES (GASES ONLY)
   CONDUCTIVITY IN UNITS OF MILLIWATTS/(CM)(K)

 VISC,MILLIPOISE  0.27906  0.28033  0.28159  0.28286  0.28412  0.28538  0.28664  0.28790

  WITH EQUILIBRIUM REACTIONS

 Cp, KJ/(KG)(K)   16.1408  16.1629  16.1850  16.2071  16.2293  16.2514  16.2736  16.2959
 CONDUCTIVITY      6.4244   6.4619   6.4995   6.5372   6.5750   6.6129   6.6509   6.6891
 PRANDTL NUMBER    0.7011   0.7012   0.7012   0.7013   0.7013   0.7013   0.7014   0.7014

  WITH FROZEN REACTIONS

 Cp, KJ/(KG)(K)   16.1319  16.1531  16.1742  16.1952  16.2161  16.2370  16.2578  16.2786
 CONDUCTIVITY      6.4179   6.4547   6.4915   6.5283   6.5651   6.6020   6.6389   6.6758
 PRANDTL NUMBER    0.7014   0.7015   0.7016   0.7017   0.7018   0.7019   0.7020   0.7020

 MOLE FRACTIONS

 *H               0.00001  0.00001  0.00001  0.00001  0.00001  0.00001  0.00001  0.00002
 *H2              0.99999  0.99999  0.99999  0.99999  0.99999  0.99999  0.99999  0.99998

  * THERMODYNAMIC PROPERTIES FITTED TO 20000.K

 NOTE. WEIGHT FRACTION OF FUEL IN TOTAL FUELS AND OF OXIDANT IN TOTAL OXIDANTS









               THERMODYNAMIC EQUILIBRIUM PROPERTIES AT ASSIGNED

                           TEMPERATURE AND PRESSURE

 CASE =                

             REACTANT                    WT FRACTION      ENERGY      TEMP
                                          (SEE NOTE)     KJ/KG-MOL      K  
             H2                           1.0000000         0.000      0.000

 O/F=    0.00000  %FUEL=100.000000  R,EQ.RATIO= 0.000000  PHI,EQ.RATIO= 0.000000

 THERMODYNAMIC PROPERTIES

 P, BAR            20.000   20.000   22.500   22.500   22.500   22.500   22.500   22.500
 T, K             1630.00  1640.00  1500.00  1510.00  1520.00  1530.00  1540.00  1550.00
 RHO, KG/CU M    2.9749-1 2.9567-1 3.6368-1 3.6127-1 3.5890-1 3.5655-1 3.5423-1 3.5195-1
 H, KJ/KG         20103.8  20267.1  18001.2  18161.6  18322.2  18483.0  18644.1  18805.4
 U, KJ/KG         13380.8  13502.9  11814.4  11933.6  12053.0  12172.6  12292.4  12412.4
 G, KJ/KG       -106557.8-107335.3 -95813.8 -96573.0 -97333.3 -98094.7 -98857.2 -99620.7
 S, KJ/(KG)(K)    77.7065  77.8064  75.8766  75.9832  76.0892  76.1946  76.2996  76.4040

 M, (1/n)           2.016    2.016    2.016    2.016    2.016    2.016    2.016    2.016
 (dLV/dLP)t      -1.00000 -1.00000 -1.00000 -1.00000 -1.00000 -1.00000 -1.00000 -1.00000
 (dLV/dLT)p        1.0001   1.0002   1.0000   1.0000   1.0000   1.0000   1.0001   1.0001
 Cp, KJ/(KG)(K)   16.3182  16.3405  16.0301  16.0521  16.0741  16.0962  16.1182  16.1403
 GAMMAs            1.3384   1.3378   1.3465   1.3458   1.3452   1.3446   1.3439   1.3433
 SON VEL,M/SEC     2999.6   3008.2   2886.2   2895.1   2904.0   2912.9   2921.7   2930.5

 TRANSPORT PROPERTIES (GASES ONLY)
   CONDUCTIVITY IN UNITS OF MILLIWATTS/(CM)(K)

 VISC,MILLIPOISE  0.28916  0.29042  0.27270  0.27398  0.27525  0.27652  0.27779  0.27906

  WITH EQUILIBRIUM REACTIONS

 Cp, KJ/(KG)(K)   16.3182  16.3405  16.0301  16.0521  16.0741  16.0962  16.1182  16.1403
 CONDUCTIVITY      6.7273   6.7657   6.2380   6.2750   6.3121   6.3494   6.3867   6.4240
 PRANDTL NUMBER    0.7014   0.7014   0.7008   0.7009   0.7009   0.7010   0.7011   0.7011

  WITH FROZEN REACTIONS

 Cp, KJ/(KG)(K)   16.2992  16.3198  16.0251  16.0466  16.0680  16.0894  16.1107  16.1319
 CONDUCTIVITY      6.7128   6.7497   6.2344   6.2710   6.3077   6.3444   6.3811   6.4179
 PRANDTL NUMBER    0.7021   0.7022   0.7010   0.7011   0.7012   0.7013   0.7014   0.7014

 MOLE FRACTIONS

 *H               0.00002  0.00002  0.00000  0.00000  0.00000  0.00001  0.00001  0.00001
 *H2              0.99998  0.99998  1.00000  1.00000  1.00000  0.99999  0.99999  0.99999

  * THERMODYNAMIC PROPERTIES FITTED TO 20000.K

 NOTE. WEIGHT FRACTION OF FUEL IN TOTAL FUELS AND OF OXIDANT IN TOTAL OXIDANTS









               THERMODYNAMIC EQUILIBRIUM PROPERTIES AT ASSIGNED

                           TEMPERATURE AND PRESSURE

 CASE =                

             REACTANT                    WT FRACTION      ENERGY      TEMP
                                          (SEE NOTE)     KJ/KG-MOL      K  
             H2                           1.0000000         0.000      0.000

 O/F=    0.00000  %FUEL=100.000000  R,EQ.RATIO= 0.000000  PHI,EQ.RATIO= 0.000000

 THERMODYNAMIC PROPERTIES

 P, BAR            22.500   22.500   22.500   22.500   22.500   22.500   22.500   22.500
 T, K             1560.00  1570.00  1580.00  1590.00  1600.00  1610.00  1620.00  1630.00
 RHO, KG/CU M    3.4969-1 3.4746-1 3.4527-1 3.4309-1 3.4095-1 3.3883-1 3.3674-1 3.3467-1
 H, KJ/KG         18966.9  19128.7  19290.6  19452.8  19615.2  19777.8  19940.6  20103.7
 U, KJ/KG         12532.7  12653.2  12773.9  12894.8  13016.0  13137.3  13258.9  13380.7
 G, KJ/KG       -100385.3-101150.9-101917.5-102685.2-103453.8-104223.5-104994.2-105765.9
 S, KJ/(KG)(K)    76.5078  76.6112  76.7140  76.8163  76.9181  77.0195  77.1203  77.2206

 M, (1/n)           2.016    2.016    2.016    2.016    2.016    2.016    2.016    2.016
 (dLV/dLP)t      -1.00000 -1.00000 -1.00000 -1.00000 -1.00000 -1.00000 -1.00000 -1.00000
 (dLV/dLT)p        1.0001   1.0001   1.0001   1.0001   1.0001   1.0001   1.0001   1.0001
 Cp, KJ/(KG)(K)   16.1623  16.1844  16.2064  16.2285  16.2506  16.2727  16.2949  16.3171
 GAMMAs            1.3427   1.3421   1.3415   1.3408   1.3402   1.3396   1.3390   1.3384
 SON VEL,M/SEC     2939.3   2948.0   2956.7   2965.3   2974.0   2982.6   2991.1   2999.7

 TRANSPORT PROPERTIES (GASES ONLY)
   CONDUCTIVITY IN UNITS OF MILLIWATTS/(CM)(K)

 VISC,MILLIPOISE  0.28033  0.28159  0.28286  0.28412  0.28538  0.28664  0.28790  0.28916

  WITH EQUILIBRIUM REACTIONS

 Cp, KJ/(KG)(K)   16.1623  16.1844  16.2064  16.2285  16.2506  16.2727  16.2949  16.3171
 CONDUCTIVITY      6.4615   6.4991   6.5367   6.5744   6.6123   6.6502   6.6883   6.7265
 PRANDTL NUMBER    0.7012   0.7012   0.7013   0.7013   0.7014   0.7014   0.7014   0.7014

  WITH FROZEN REACTIONS

 Cp, KJ/(KG)(K)   16.1531  16.1742  16.1952  16.2161  16.2370  16.2578  16.2786  16.2992
 CONDUCTIVITY      6.4547   6.4915   6.5283   6.5651   6.6020   6.6389   6.6758   6.7127
 PRANDTL NUMBER    0.7015   0.7016   0.7017   0.7018   0.7019   0.7020   0.7020   0.7021

 MOLE FRACTIONS

 *H               0.00001  0.00001  0.00001  0.00001  0.00001  0.00001  0.00001  0.00002
 *H2              0.99999  0.99999  0.99999  0.99999  0.99999  0.99999  0.99999  0.99998

  * THERMODYNAMIC PROPERTIES FITTED TO 20000.K

 NOTE. WEIGHT FRACTION OF FUEL IN TOTAL FUELS AND OF OXIDANT IN TOTAL OXIDANTS









               THERMODYNAMIC EQUILIBRIUM PROPERTIES AT ASSIGNED

                           TEMPERATURE AND PRESSURE

 CASE =                

             REACTANT                    WT FRACTION      ENERGY      TEMP
                                          (SEE NOTE)     KJ/KG-MOL      K  
             H2                           1.0000000         0.000      0.000

 O/F=    0.00000  %FUEL=100.000000  R,EQ.RATIO= 0.000000  PHI,EQ.RATIO= 0.000000

 THERMODYNAMIC PROPERTIES

 P, BAR            22.500   25.000   25.000   25.000   25.000   25.000   25.000   25.000
 T, K             1640.00  1500.00  1510.00  1520.00  1530.00  1540.00  1550.00  1560.00
 RHO, KG/CU M    3.3263-1 4.0409-1 4.0141-1 3.9877-1 3.9617-1 3.9359-1 3.9105-1 3.8855-1
 H, KJ/KG         20267.0  18001.1  18161.5  18322.2  18483.0  18644.1  18805.4  18966.9
 U, KJ/KG         13502.8  11814.4  11933.5  12052.9  12172.5  12292.4  12412.4  12532.7
 G, KJ/KG       -106538.6 -95161.9 -95916.8 -96672.8 -97429.9 -98188.0 -98947.2 -99707.4
 S, KJ/(KG)(K)    77.3205  75.4420  75.5486  75.6546  75.7601  75.8650  75.9694  76.0732

 M, (1/n)           2.016    2.016    2.016    2.016    2.016    2.016    2.016    2.016
 (dLV/dLP)t      -1.00000 -1.00000 -1.00000 -1.00000 -1.00000 -1.00000 -1.00000 -1.00000
 (dLV/dLT)p        1.0001   1.0000   1.0000   1.0000   1.0000   1.0000   1.0001   1.0001
 Cp, KJ/(KG)(K)   16.3393  16.0298  16.0518  16.0738  16.0958  16.1178  16.1398  16.1618
 GAMMAs            1.3378   1.3465   1.3458   1.3452   1.3446   1.3440   1.3433   1.3427
 SON VEL,M/SEC     3008.2   2886.2   2895.1   2904.0   2912.9   2921.7   2930.5   2939.3

 TRANSPORT PROPERTIES (GASES ONLY)
   CONDUCTIVITY IN UNITS OF MILLIWATTS/(CM)(K)

 VISC,MILLIPOISE  0.29042  0.27270  0.27398  0.27525  0.27652  0.27779  0.27906  0.28033

  WITH EQUILIBRIUM REACTIONS

 Cp, KJ/(KG)(K)   16.3393  16.0298  16.0518  16.0738  16.0958  16.1178  16.1398  16.1618
 CONDUCTIVITY      6.7648   6.2378   6.2748   6.3119   6.3491   6.3864   6.4237   6.4612
 PRANDTL NUMBER    0.7015   0.7008   0.7009   0.7010   0.7010   0.7011   0.7012   0.7012

  WITH FROZEN REACTIONS

 Cp, KJ/(KG)(K)   16.3198  16.0251  16.0466  16.0680  16.0894  16.1107  16.1319  16.1531
 CONDUCTIVITY      6.7497   6.2344   6.2710   6.3077   6.3444   6.3811   6.4179   6.4547
 PRANDTL NUMBER    0.7022   0.7010   0.7011   0.7012   0.7013   0.7014   0.7014   0.7015

 MOLE FRACTIONS

 *H               0.00002  0.00000  0.00000  0.00000  0.00001  0.00001  0.00001  0.00001
 *H2              0.99998  1.00000  1.00000  1.00000  0.99999  0.99999  0.99999  0.99999

  * THERMODYNAMIC PROPERTIES FITTED TO 20000.K

 NOTE. WEIGHT FRACTION OF FUEL IN TOTAL FUELS AND OF OXIDANT IN TOTAL OXIDANTS









               THERMODYNAMIC EQUILIBRIUM PROPERTIES AT ASSIGNED

                           TEMPERATURE AND PRESSURE

 CASE =                

             REACTANT                    WT FRACTION      ENERGY      TEMP
                                          (SEE NOTE)     KJ/KG-MOL      K  
             H2                           1.0000000         0.000      0.000

 O/F=    0.00000  %FUEL=100.000000  R,EQ.RATIO= 0.000000  PHI,EQ.RATIO= 0.000000

 THERMODYNAMIC PROPERTIES

 P, BAR            25.000   25.000   25.000   25.000   25.000   25.000   25.000   25.000
 T, K             1570.00  1580.00  1590.00  1600.00  1610.00  1620.00  1630.00  1640.00
 RHO, KG/CU M    3.8607-1 3.8363-1 3.8122-1 3.7883-1 3.7648-1 3.7416-1 3.7186-1 3.6959-1
 H, KJ/KG         19128.6  19290.6  19452.7  19615.1  19777.7  19940.6  20103.6  20266.9
 U, KJ/KG         12653.1  12773.8  12894.8  13015.9  13137.3  13258.8  13380.6  13502.7
 G, KJ/KG       -100468.6-101230.9-101994.2-102758.5-103523.9-104290.2-105057.6-105825.9
 S, KJ/(KG)(K)    76.1766  76.2794  76.3817  76.4835  76.5848  76.6857  76.7860  76.8859

 M, (1/n)           2.016    2.016    2.016    2.016    2.016    2.016    2.016    2.016
 (dLV/dLP)t      -1.00000 -1.00000 -1.00000 -1.00000 -1.00000 -1.00000 -1.00000 -1.00000
 (dLV/dLT)p        1.0001   1.0001   1.0001   1.0001   1.0001   1.0001   1.0001   1.0001
 Cp, KJ/(KG)(K)   16.1838  16.2058  16.2279  16.2499  16.2720  16.2940  16.3162  16.3383
 GAMMAs            1.3421   1.3415   1.3409   1.3402   1.3396   1.3390   1.3384   1.3378
 SON VEL,M/SEC     2948.0   2956.7   2965.3   2974.0   2982.6   2991.2   2999.7   3008.2

 TRANSPORT PROPERTIES (GASES ONLY)
   CONDUCTIVITY IN UNITS OF MILLIWATTS/(CM)(K)

 VISC,MILLIPOISE  0.28159  0.28286  0.28412  0.28538  0.28664  0.28790  0.28916  0.29042

  WITH EQUILIBRIUM REACTIONS

 Cp, KJ/(KG)(K)   16.1838  16.2058  16.2279  16.2499  16.2720  16.2940  16.3162  16.3383
 CONDUCTIVITY      6.4987   6.5363   6.5740   6.6118   6.6497   6.6877   6.7258   6.7640
 PRANDTL NUMBER    0.7013   0.7013   0.7014   0.7014   0.7014   0.7015   0.7015   0.7015

  WITH FROZEN REACTIONS

 Cp, KJ/(KG)(K)   16.1742  16.1952  16.2161  16.2370  16.2578  16.2786  16.2992  16.3198
 CONDUCTIVITY      6.4915   6.5283   6.5651   6.6020   6.6389   6.6758   6.7127   6.7497
 PRANDTL NUMBER    0.7016   0.7017   0.7018   0.7019   0.7020   0.7020   0.7021   0.7022

 MOLE FRACTIONS

 *H               0.00001  0.00001  0.00001  0.00001  0.00001  0.00001  0.00001  0.00002
 *H2              0.99999  0.99999  0.99999  0.99999  0.99999  0.99999  0.99999  0.99998

  * THERMODYNAMIC PROPERTIES FITTED TO 20000.K

 NOTE. WEIGHT FRACTION OF FUEL IN TOTAL FUELS AND OF OXIDANT IN TOTAL OXIDANTS









               THERMODYNAMIC EQUILIBRIUM PROPERTIES AT ASSIGNED

                           TEMPERATURE AND PRESSURE

 CASE =                

             REACTANT                    WT FRACTION      ENERGY      TEMP
                                          (SEE NOTE)     KJ/KG-MOL      K  
             H2                           1.0000000         0.000      0.000

 O/F=    0.00000  %FUEL=100.000000  R,EQ.RATIO= 0.000000  PHI,EQ.RATIO= 0.000000

 THERMODYNAMIC PROPERTIES

 P, BAR            28.000   28.000   28.000   28.000   28.000   28.000   28.000   28.000
 T, K             1500.00  1510.00  1520.00  1530.00  1540.00  1550.00  1560.00  1570.00
 RHO, KG/CU M    4.5258-1 4.4958-1 4.4663-1 4.4371-1 4.4082-1 4.3798-1 4.3517-1 4.3240-1
 H, KJ/KG         18001.1  18161.5  18322.1  18483.0  18644.0  18805.3  18966.8  19128.6
 U, KJ/KG         11814.4  11933.5  12052.9  12172.5  12292.3  12412.4  12532.6  12653.1
 G, KJ/KG        -94460.8 -95211.0 -95962.3 -96714.7 -97468.1 -98222.6 -98978.2 -99734.8
 S, KJ/(KG)(K)    74.9746  75.0811  75.1871  75.2926  75.3975  75.5019  75.6058  75.7091

 M, (1/n)           2.016    2.016    2.016    2.016    2.016    2.016    2.016    2.016
 (dLV/dLP)t      -1.00000 -1.00000 -1.00000 -1.00000 -1.00000 -1.00000 -1.00000 -1.00000
 (dLV/dLT)p        1.0000   1.0000   1.0000   1.0000   1.0000   1.0001   1.0001   1.0001
 Cp, KJ/(KG)(K)   16.0295  16.0515  16.0735  16.0955  16.1174  16.1394  16.1613  16.1833
 GAMMAs            1.3465   1.3458   1.3452   1.3446   1.3440   1.3433   1.3427   1.3421
 SON VEL,M/SEC     2886.2   2895.2   2904.0   2912.9   2921.7   2930.5   2939.3   2948.0

 TRANSPORT PROPERTIES (GASES ONLY)
   CONDUCTIVITY IN UNITS OF MILLIWATTS/(CM)(K)

 VISC,MILLIPOISE  0.27270  0.27398  0.27525  0.27652  0.27779  0.27906  0.28033  0.28159

  WITH EQUILIBRIUM REACTIONS

 Cp, KJ/(KG)(K)   16.0295  16.0515  16.0735  16.0955  16.1174  16.1394  16.1613  16.1833
 CONDUCTIVITY      6.2376   6.2746   6.3117   6.3488   6.3861   6.4234   6.4608   6.4983
 PRANDTL NUMBER    0.7008   0.7009   0.7010   0.7010   0.7011   0.7012   0.7012   0.7013

  WITH FROZEN REACTIONS

 Cp, KJ/(KG)(K)   16.0251  16.0466  16.0680  16.0894  16.1107  16.1319  16.1531  16.1742
 CONDUCTIVITY      6.2344   6.2710   6.3077   6.3444   6.3811   6.4179   6.4547   6.4915
 PRANDTL NUMBER    0.7010   0.7011   0.7012   0.7013   0.7014   0.7014   0.7015   0.7016

 MOLE FRACTIONS

 *H               0.00000  0.00000  0.00000  0.00000  0.00001  0.00001  0.00001  0.00001
 *H2              1.00000  1.00000  1.00000  1.00000  0.99999  0.99999  0.99999  0.99999

  * THERMODYNAMIC PROPERTIES FITTED TO 20000.K

 NOTE. WEIGHT FRACTION OF FUEL IN TOTAL FUELS AND OF OXIDANT IN TOTAL OXIDANTS









               THERMODYNAMIC EQUILIBRIUM PROPERTIES AT ASSIGNED

                           TEMPERATURE AND PRESSURE

 CASE =                

             REACTANT                    WT FRACTION      ENERGY      TEMP
                                          (SEE NOTE)     KJ/KG-MOL      K  
             H2                           1.0000000         0.000      0.000

 O/F=    0.00000  %FUEL=100.000000  R,EQ.RATIO= 0.000000  PHI,EQ.RATIO= 0.000000

 THERMODYNAMIC PROPERTIES

 P, BAR            28.000   28.000   28.000   28.000   28.000   28.000   28.000   31.000
 T, K             1580.00  1590.00  1600.00  1610.00  1620.00  1630.00  1640.00  1500.00
 RHO, KG/CU M    4.2966-1 4.2696-1 4.2429-1 4.2166-1 4.1905-1 4.1648-1 4.1394-1 5.0107-1
 H, KJ/KG         19290.5  19452.7  19615.0  19777.6  19940.5  20103.5  20266.8  18001.1
 U, KJ/KG         12773.8  12894.7  13015.8  13137.2  13258.8  13380.6  13502.6  11814.4
 G, KJ/KG       -100492.4-101251.0-102010.6-102771.3-103533.0-104295.7-105059.4 -93831.1
 S, KJ/(KG)(K)    75.8119  75.9143  76.0161  76.1174  76.2182  76.3185  76.4184  74.5548

 M, (1/n)           2.016    2.016    2.016    2.016    2.016    2.016    2.016    2.016
 (dLV/dLP)t      -1.00000 -1.00000 -1.00000 -1.00000 -1.00000 -1.00000 -1.00000 -1.00000
 (dLV/dLT)p        1.0001   1.0001   1.0001   1.0001   1.0001   1.0001   1.0001   1.0000
 Cp, KJ/(KG)(K)   16.2053  16.2272  16.2492  16.2712  16.2932  16.3152  16.3373  16.0293
 GAMMAs            1.3415   1.3409   1.3403   1.3396   1.3390   1.3384   1.3378   1.3465
 SON VEL,M/SEC     2956.7   2965.4   2974.0   2982.6   2991.2   2999.7   3008.2   2886.2

 TRANSPORT PROPERTIES (GASES ONLY)
   CONDUCTIVITY IN UNITS OF MILLIWATTS/(CM)(K)

 VISC,MILLIPOISE  0.28286  0.28412  0.28538  0.28664  0.28790  0.28916  0.29042  0.27270

  WITH EQUILIBRIUM REACTIONS

 Cp, KJ/(KG)(K)   16.2053  16.2272  16.2492  16.2712  16.2932  16.3152  16.3373  16.0293
 CONDUCTIVITY      6.5358   6.5735   6.6112   6.6491   6.6870   6.7251   6.7632   6.2374
 PRANDTL NUMBER    0.7013   0.7014   0.7014   0.7015   0.7015   0.7015   0.7015   0.7008

  WITH FROZEN REACTIONS

 Cp, KJ/(KG)(K)   16.1952  16.2161  16.2370  16.2578  16.2786  16.2992  16.3198  16.0251
 CONDUCTIVITY      6.5283   6.5651   6.6020   6.6389   6.6758   6.7127   6.7497   6.2344
 PRANDTL NUMBER    0.7017   0.7018   0.7019   0.7020   0.7020   0.7021   0.7022   0.7010

 MOLE FRACTIONS

 *H               0.00001  0.00001  0.00001  0.00001  0.00001  0.00001  0.00002  0.00000
 *H2              0.99999  0.99999  0.99999  0.99999  0.99999  0.99999  0.99998  1.00000

  * THERMODYNAMIC PROPERTIES FITTED TO 20000.K

 NOTE. WEIGHT FRACTION OF FUEL IN TOTAL FUELS AND OF OXIDANT IN TOTAL OXIDANTS









               THERMODYNAMIC EQUILIBRIUM PROPERTIES AT ASSIGNED

                           TEMPERATURE AND PRESSURE

 CASE =                

             REACTANT                    WT FRACTION      ENERGY      TEMP
                                          (SEE NOTE)     KJ/KG-MOL      K  
             H2                           1.0000000         0.000      0.000

 O/F=    0.00000  %FUEL=100.000000  R,EQ.RATIO= 0.000000  PHI,EQ.RATIO= 0.000000

 THERMODYNAMIC PROPERTIES

 P, BAR            31.000   31.000   31.000   31.000   31.000   31.000   31.000   31.000
 T, K             1510.00  1520.00  1530.00  1540.00  1550.00  1560.00  1570.00  1580.00
 RHO, KG/CU M    4.9775-1 4.9448-1 4.9125-1 4.8806-1 4.8491-1 4.8180-1 4.7873-1 4.7570-1
 H, KJ/KG         18161.5  18322.1  18483.0  18644.0  18805.3  18966.8  19128.5  19290.5
 U, KJ/KG         11933.5  12052.9  12172.5  12292.3  12412.3  12532.6  12653.0  12773.7
 G, KJ/KG        -94577.1 -95324.2 -96072.4 -96821.6 -97571.9 -98323.3 -99075.7 -99829.1
 S, KJ/(KG)(K)    74.6613  74.7673  74.8728  74.9777  75.0821  75.1860  75.2893  75.3921

 M, (1/n)           2.016    2.016    2.016    2.016    2.016    2.016    2.016    2.016
 (dLV/dLP)t      -1.00000 -1.00000 -1.00000 -1.00000 -1.00000 -1.00000 -1.00000 -1.00000
 (dLV/dLT)p        1.0000   1.0000   1.0000   1.0000   1.0000   1.0001   1.0001   1.0001
 Cp, KJ/(KG)(K)   16.0513  16.0732  16.0952  16.1171  16.1390  16.1609  16.1828  16.2048
 GAMMAs            1.3459   1.3452   1.3446   1.3440   1.3433   1.3427   1.3421   1.3415
 SON VEL,M/SEC     2895.2   2904.1   2912.9   2921.7   2930.5   2939.3   2948.0   2956.7

 TRANSPORT PROPERTIES (GASES ONLY)
   CONDUCTIVITY IN UNITS OF MILLIWATTS/(CM)(K)

 VISC,MILLIPOISE  0.27398  0.27525  0.27652  0.27779  0.27906  0.28033  0.28159  0.28286

  WITH EQUILIBRIUM REACTIONS

 Cp, KJ/(KG)(K)   16.0513  16.0732  16.0952  16.1171  16.1390  16.1609  16.1828  16.2048
 CONDUCTIVITY      6.2744   6.3115   6.3486   6.3858   6.4231   6.4605   6.4979   6.5355
 PRANDTL NUMBER    0.7009   0.7010   0.7010   0.7011   0.7012   0.7012   0.7013   0.7014

  WITH FROZEN REACTIONS

 Cp, KJ/(KG)(K)   16.0466  16.0680  16.0894  16.1107  16.1319  16.1531  16.1742  16.1952
 CONDUCTIVITY      6.2710   6.3077   6.3444   6.3811   6.4179   6.4547   6.4915   6.5283
 PRANDTL NUMBER    0.7011   0.7012   0.7013   0.7014   0.7014   0.7015   0.7016   0.7017

 MOLE FRACTIONS

 *H               0.00000  0.00000  0.00000  0.00001  0.00001  0.00001  0.00001  0.00001
 *H2              1.00000  1.00000  1.00000  0.99999  0.99999  0.99999  0.99999  0.99999

  * THERMODYNAMIC PROPERTIES FITTED TO 20000.K

 NOTE. WEIGHT FRACTION OF FUEL IN TOTAL FUELS AND OF OXIDANT IN TOTAL OXIDANTS









               THERMODYNAMIC EQUILIBRIUM PROPERTIES AT ASSIGNED

                           TEMPERATURE AND PRESSURE

 CASE =                

             REACTANT                    WT FRACTION      ENERGY      TEMP
                                          (SEE NOTE)     KJ/KG-MOL      K  
             H2                           1.0000000         0.000      0.000

 O/F=    0.00000  %FUEL=100.000000  R,EQ.RATIO= 0.000000  PHI,EQ.RATIO= 0.000000

 THERMODYNAMIC PROPERTIES

 P, BAR            31.000   31.000   31.000   31.000   31.000   31.000   35.000   35.000
 T, K             1590.00  1600.00  1610.00  1620.00  1630.00  1640.00  1500.00  1510.00
 RHO, KG/CU M    4.7271-1 4.6975-1 4.6684-1 4.6395-1 4.6111-1 4.5829-1 5.6572-1 5.6198-1
 H, KJ/KG         19452.6  19615.0  19777.6  19940.4  20103.4  20266.7  18001.1  18161.5
 U, KJ/KG         12894.6  13015.8  13137.1  13258.7  13380.5  13502.5  11814.3  11933.5
 G, KJ/KG       -100583.5-101339.0-102095.4-102852.9-103611.4-104370.9 -93080.3 -93821.2
 S, KJ/(KG)(K)    75.4944  75.5962  75.6975  75.7983  75.8987  75.9985  74.0542  74.1607

 M, (1/n)           2.016    2.016    2.016    2.016    2.016    2.016    2.016    2.016
 (dLV/dLP)t      -1.00000 -1.00000 -1.00000 -1.00000 -1.00000 -1.00000 -1.00000 -1.00000
 (dLV/dLT)p        1.0001   1.0001   1.0001   1.0001   1.0001   1.0001   1.0000   1.0000
 Cp, KJ/(KG)(K)   16.2267  16.2486  16.2705  16.2925  16.3144  16.3364  16.0291  16.0510
 GAMMAs            1.3409   1.3403   1.3397   1.3391   1.3385   1.3379   1.3465   1.3459
 SON VEL,M/SEC     2965.4   2974.0   2982.6   2991.2   2999.7   3008.2   2886.2   2895.2

 TRANSPORT PROPERTIES (GASES ONLY)
   CONDUCTIVITY IN UNITS OF MILLIWATTS/(CM)(K)

 VISC,MILLIPOISE  0.28412  0.28538  0.28664  0.28790  0.28916  0.29042  0.27270  0.27398

  WITH EQUILIBRIUM REACTIONS

 Cp, KJ/(KG)(K)   16.2267  16.2486  16.2705  16.2925  16.3144  16.3364  16.0291  16.0510
 CONDUCTIVITY      6.5731   6.6108   6.6485   6.6864   6.7244   6.7626   6.2373   6.2742
 PRANDTL NUMBER    0.7014   0.7014   0.7015   0.7015   0.7015   0.7016   0.7008   0.7009

  WITH FROZEN REACTIONS

 Cp, KJ/(KG)(K)   16.2161  16.2370  16.2578  16.2785  16.2992  16.3198  16.0251  16.0466
 CONDUCTIVITY      6.5651   6.6020   6.6389   6.6758   6.7127   6.7497   6.2344   6.2710
 PRANDTL NUMBER    0.7018   0.7019   0.7020   0.7020   0.7021   0.7022   0.7010   0.7011

 MOLE FRACTIONS

 *H               0.00001  0.00001  0.00001  0.00001  0.00001  0.00001  0.00000  0.00000
 *H2              0.99999  0.99999  0.99999  0.99999  0.99999  0.99999  1.00000  1.00000

  * THERMODYNAMIC PROPERTIES FITTED TO 20000.K

 NOTE. WEIGHT FRACTION OF FUEL IN TOTAL FUELS AND OF OXIDANT IN TOTAL OXIDANTS









               THERMODYNAMIC EQUILIBRIUM PROPERTIES AT ASSIGNED

                           TEMPERATURE AND PRESSURE

 CASE =                

             REACTANT                    WT FRACTION      ENERGY      TEMP
                                          (SEE NOTE)     KJ/KG-MOL      K  
             H2                           1.0000000         0.000      0.000

 O/F=    0.00000  %FUEL=100.000000  R,EQ.RATIO= 0.000000  PHI,EQ.RATIO= 0.000000

 THERMODYNAMIC PROPERTIES

 P, BAR            35.000   35.000   35.000   35.000   35.000   35.000   35.000   35.000
 T, K             1520.00  1530.00  1540.00  1550.00  1560.00  1570.00  1580.00  1590.00
 RHO, KG/CU M    5.5828-1 5.5463-1 5.5103-1 5.4748-1 5.4397-1 5.4050-1 5.3708-1 5.3370-1
 H, KJ/KG         18322.1  18482.9  18644.0  18805.3  18966.8  19128.5  19290.4  19452.6
 U, KJ/KG         12052.9  12172.4  12292.3  12412.3  12532.5  12653.0  12773.7  12894.6
 G, KJ/KG        -94563.4 -95306.6 -96050.8 -96796.1 -97542.4 -98289.8 -99038.2 -99787.6
 S, KJ/(KG)(K)    74.2667  74.3722  74.4771  74.5815  74.6854  74.7887  74.8915  74.9938

 M, (1/n)           2.016    2.016    2.016    2.016    2.016    2.016    2.016    2.016
 (dLV/dLP)t      -1.00000 -1.00000 -1.00000 -1.00000 -1.00000 -1.00000 -1.00000 -1.00000
 (dLV/dLT)p        1.0000   1.0000   1.0000   1.0000   1.0001   1.0001   1.0001   1.0001
 Cp, KJ/(KG)(K)   16.0729  16.0948  16.1167  16.1386  16.1605  16.1823  16.2042  16.2260
 GAMMAs            1.3452   1.3446   1.3440   1.3434   1.3427   1.3421   1.3415   1.3409
 SON VEL,M/SEC     2904.1   2912.9   2921.7   2930.5   2939.3   2948.0   2956.7   2965.4

 TRANSPORT PROPERTIES (GASES ONLY)
   CONDUCTIVITY IN UNITS OF MILLIWATTS/(CM)(K)

 VISC,MILLIPOISE  0.27525  0.27652  0.27779  0.27906  0.28033  0.28159  0.28286  0.28412

  WITH EQUILIBRIUM REACTIONS

 Cp, KJ/(KG)(K)   16.0729  16.0948  16.1167  16.1386  16.1605  16.1823  16.2042  16.2260
 CONDUCTIVITY      6.3113   6.3484   6.3856   6.4228   6.4601   6.4975   6.5350   6.5726
 PRANDTL NUMBER    0.7010   0.7011   0.7011   0.7012   0.7013   0.7013   0.7014   0.7014

  WITH FROZEN REACTIONS

 Cp, KJ/(KG)(K)   16.0680  16.0894  16.1107  16.1319  16.1531  16.1742  16.1952  16.2161
 CONDUCTIVITY      6.3077   6.3444   6.3811   6.4179   6.4547   6.4915   6.5283   6.5651
 PRANDTL NUMBER    0.7012   0.7013   0.7014   0.7014   0.7015   0.7016   0.7017   0.7018

 MOLE FRACTIONS

 *H               0.00000  0.00000  0.00000  0.00001  0.00001  0.00001  0.00001  0.00001
 *H2              1.00000  1.00000  1.00000  0.99999  0.99999  0.99999  0.99999  0.99999

  * THERMODYNAMIC PROPERTIES FITTED TO 20000.K

 NOTE. WEIGHT FRACTION OF FUEL IN TOTAL FUELS AND OF OXIDANT IN TOTAL OXIDANTS









               THERMODYNAMIC EQUILIBRIUM PROPERTIES AT ASSIGNED

                           TEMPERATURE AND PRESSURE

 CASE =                

             REACTANT                    WT FRACTION      ENERGY      TEMP
                                          (SEE NOTE)     KJ/KG-MOL      K  
             H2                           1.0000000         0.000      0.000

 O/F=    0.00000  %FUEL=100.000000  R,EQ.RATIO= 0.000000  PHI,EQ.RATIO= 0.000000

 THERMODYNAMIC PROPERTIES

 P, BAR            35.000   35.000   35.000   35.000   35.000   39.000   39.000   39.000
 T, K             1600.00  1610.00  1620.00  1630.00  1640.00  1500.00  1510.00  1520.00
 RHO, KG/CU M    5.3037-1 5.2707-1 5.2382-1 5.2060-1 5.1743-1 6.3038-1 6.2621-1 6.2209-1
 H, KJ/KG         19614.9  19777.5  19940.3  20103.3  20266.6  18001.1  18161.5  18322.1
 U, KJ/KG         13015.7  13137.1  13258.6  13380.4  13502.4  11814.3  11933.5  12052.8
 G, KJ/KG       -100538.1-101289.5-102042.0-102795.5-103550.0 -92410.8 -93147.3 -93884.9
 S, KJ/(KG)(K)    75.0956  75.1969  75.2977  75.3981  75.4979  73.6079  73.7144  73.8204

 M, (1/n)           2.016    2.016    2.016    2.016    2.016    2.016    2.016    2.016
 (dLV/dLP)t      -1.00000 -1.00000 -1.00000 -1.00000 -1.00000 -1.00000 -1.00000 -1.00000
 (dLV/dLT)p        1.0001   1.0001   1.0001   1.0001   1.0001   1.0000   1.0000   1.0000
 Cp, KJ/(KG)(K)   16.2479  16.2698  16.2916  16.3135  16.3354  16.0289  16.0508  16.0727
 GAMMAs            1.3403   1.3397   1.3391   1.3385   1.3379   1.3465   1.3459   1.3452
 SON VEL,M/SEC     2974.0   2982.6   2991.2   2999.8   3008.3   2886.3   2895.2   2904.1

 TRANSPORT PROPERTIES (GASES ONLY)
   CONDUCTIVITY IN UNITS OF MILLIWATTS/(CM)(K)

 VISC,MILLIPOISE  0.28538  0.28664  0.28790  0.28916  0.29042  0.27270  0.27398  0.27525

  WITH EQUILIBRIUM REACTIONS

 Cp, KJ/(KG)(K)   16.2479  16.2698  16.2916  16.3135  16.3354  16.0289  16.0508  16.0727
 CONDUCTIVITY      6.6102   6.6480   6.6858   6.7237   6.7618   6.2371   6.2740   6.3111
 PRANDTL NUMBER    0.7015   0.7015   0.7015   0.7016   0.7016   0.7008   0.7009   0.7010

  WITH FROZEN REACTIONS

 Cp, KJ/(KG)(K)   16.2370  16.2578  16.2785  16.2992  16.3198  16.0251  16.0466  16.0680
 CONDUCTIVITY      6.6020   6.6389   6.6758   6.7127   6.7497   6.2344   6.2710   6.3077
 PRANDTL NUMBER    0.7019   0.7020   0.7020   0.7021   0.7022   0.7010   0.7011   0.7012

 MOLE FRACTIONS

 *H               0.00001  0.00001  0.00001  0.00001  0.00001  0.00000  0.00000  0.00000
 *H2              0.99999  0.99999  0.99999  0.99999  0.99999  1.00000  1.00000  1.00000

  * THERMODYNAMIC PROPERTIES FITTED TO 20000.K

 NOTE. WEIGHT FRACTION OF FUEL IN TOTAL FUELS AND OF OXIDANT IN TOTAL OXIDANTS









               THERMODYNAMIC EQUILIBRIUM PROPERTIES AT ASSIGNED

                           TEMPERATURE AND PRESSURE

 CASE =                

             REACTANT                    WT FRACTION      ENERGY      TEMP
                                          (SEE NOTE)     KJ/KG-MOL      K  
             H2                           1.0000000         0.000      0.000

 O/F=    0.00000  %FUEL=100.000000  R,EQ.RATIO= 0.000000  PHI,EQ.RATIO= 0.000000

 THERMODYNAMIC PROPERTIES

 P, BAR            39.000   39.000   39.000   39.000   39.000   39.000   39.000   39.000
 T, K             1530.00  1540.00  1550.00  1560.00  1570.00  1580.00  1590.00  1600.00
 RHO, KG/CU M    6.1802-1 6.1401-1 6.1004-1 6.0613-1 6.0227-1 5.9846-1 5.9470-1 5.9098-1
 H, KJ/KG         18482.9  18644.0  18805.2  18966.7  19128.4  19290.4  19452.5  19614.9
 U, KJ/KG         12172.4  12292.2  12412.3  12532.5  12653.0  12773.6  12894.5  13015.7
 G, KJ/KG        -94623.7 -95363.4 -96104.3 -96846.1 -97589.1 -98333.0 -99078.0 -99823.9
 S, KJ/(KG)(K)    73.9259  74.0308  74.1352  74.2390  74.3423  74.4452  74.5475  74.6493

 M, (1/n)           2.016    2.016    2.016    2.016    2.016    2.016    2.016    2.016
 (dLV/dLP)t      -1.00000 -1.00000 -1.00000 -1.00000 -1.00000 -1.00000 -1.00000 -1.00000
 (dLV/dLT)p        1.0000   1.0000   1.0000   1.0000   1.0001   1.0001   1.0001   1.0001
 Cp, KJ/(KG)(K)   16.0945  16.1164  16.1382  16.1601  16.1819  16.2037  16.2255  16.2473
 GAMMAs            1.3446   1.3440   1.3434   1.3427   1.3421   1.3415   1.3409   1.3403
 SON VEL,M/SEC     2912.9   2921.7   2930.5   2939.3   2948.0   2956.7   2965.4   2974.0

 TRANSPORT PROPERTIES (GASES ONLY)
   CONDUCTIVITY IN UNITS OF MILLIWATTS/(CM)(K)

 VISC,MILLIPOISE  0.27652  0.27779  0.27906  0.28033  0.28159  0.28286  0.28412  0.28538

  WITH EQUILIBRIUM REACTIONS

 Cp, KJ/(KG)(K)   16.0945  16.1164  16.1382  16.1601  16.1819  16.2037  16.2255  16.2473
 CONDUCTIVITY      6.3482   6.3853   6.4226   6.4599   6.4972   6.5347   6.5722   6.6098
 PRANDTL NUMBER    0.7011   0.7011   0.7012   0.7013   0.7013   0.7014   0.7014   0.7015

  WITH FROZEN REACTIONS

 Cp, KJ/(KG)(K)   16.0894  16.1107  16.1319  16.1531  16.1742  16.1952  16.2161  16.2370
 CONDUCTIVITY      6.3444   6.3811   6.4179   6.4547   6.4915   6.5283   6.5651   6.6020
 PRANDTL NUMBER    0.7013   0.7014   0.7014   0.7015   0.7016   0.7017   0.7018   0.7019

 MOLE FRACTIONS

 *H               0.00000  0.00000  0.00001  0.00001  0.00001  0.00001  0.00001  0.00001
 *H2              1.00000  1.00000  0.99999  0.99999  0.99999  0.99999  0.99999  0.99999

  * THERMODYNAMIC PROPERTIES FITTED TO 20000.K

 NOTE. WEIGHT FRACTION OF FUEL IN TOTAL FUELS AND OF OXIDANT IN TOTAL OXIDANTS









               THERMODYNAMIC EQUILIBRIUM PROPERTIES AT ASSIGNED

                           TEMPERATURE AND PRESSURE

 CASE =                

             REACTANT                    WT FRACTION      ENERGY      TEMP
                                          (SEE NOTE)     KJ/KG-MOL      K  
             H2                           1.0000000         0.000      0.000

 O/F=    0.00000  %FUEL=100.000000  R,EQ.RATIO= 0.000000  PHI,EQ.RATIO= 0.000000

 THERMODYNAMIC PROPERTIES

 P, BAR            39.000   39.000   39.000   39.000   44.000   44.000   44.000   44.000
 T, K             1610.00  1620.00  1630.00  1640.00  1500.00  1510.00  1520.00  1530.00
 RHO, KG/CU M    5.8731-1 5.8368-1 5.8010-1 5.7656-1 7.1120-1 7.0649-1 7.0184-1 6.9725-1
 H, KJ/KG         19777.5  19940.3  20103.3  20266.5  18001.1  18161.4  18322.0  18482.9
 U, KJ/KG         13137.0  13258.5  13380.3  13502.3  11814.3  11933.4  12052.8  12172.4
 G, KJ/KG       -100570.9-101318.9-102068.0-102818.0 -91664.5 -92396.0 -93128.7 -93862.4
 S, KJ/(KG)(K)    74.7506  74.8514  74.9517  75.0515  73.1103  73.2169  73.3229  73.4283

 M, (1/n)           2.016    2.016    2.016    2.016    2.016    2.016    2.016    2.016
 (dLV/dLP)t      -1.00000 -1.00000 -1.00000 -1.00000 -1.00000 -1.00000 -1.00000 -1.00000
 (dLV/dLT)p        1.0001   1.0001   1.0001   1.0001   1.0000   1.0000   1.0000   1.0000
 Cp, KJ/(KG)(K)   16.2691  16.2910  16.3128  16.3346  16.0286  16.0505  16.0724  16.0942
 GAMMAs            1.3397   1.3391   1.3385   1.3379   1.3465   1.3459   1.3452   1.3446
 SON VEL,M/SEC     2982.6   2991.2   2999.8   3008.3   2886.3   2895.2   2904.1   2912.9

 TRANSPORT PROPERTIES (GASES ONLY)
   CONDUCTIVITY IN UNITS OF MILLIWATTS/(CM)(K)

 VISC,MILLIPOISE  0.28664  0.28790  0.28916  0.29042  0.27270  0.27398  0.27525  0.27652

  WITH EQUILIBRIUM REACTIONS

 Cp, KJ/(KG)(K)   16.2691  16.2910  16.3128  16.3346  16.0286  16.0505  16.0724  16.0942
 CONDUCTIVITY      6.6475   6.6853   6.7232   6.7611   6.2369   6.2739   6.3109   6.3479
 PRANDTL NUMBER    0.7015   0.7016   0.7016   0.7016   0.7008   0.7009   0.7010   0.7011

  WITH FROZEN REACTIONS

 Cp, KJ/(KG)(K)   16.2578  16.2785  16.2992  16.3198  16.0251  16.0466  16.0680  16.0894
 CONDUCTIVITY      6.6389   6.6758   6.7127   6.7497   6.2344   6.2710   6.3077   6.3444
 PRANDTL NUMBER    0.7020   0.7020   0.7021   0.7022   0.7010   0.7011   0.7012   0.7013

 MOLE FRACTIONS

 *H               0.00001  0.00001  0.00001  0.00001  0.00000  0.00000  0.00000  0.00000
 *H2              0.99999  0.99999  0.99999  0.99999  1.00000  1.00000  1.00000  1.00000

  * THERMODYNAMIC PROPERTIES FITTED TO 20000.K

 NOTE. WEIGHT FRACTION OF FUEL IN TOTAL FUELS AND OF OXIDANT IN TOTAL OXIDANTS









               THERMODYNAMIC EQUILIBRIUM PROPERTIES AT ASSIGNED

                           TEMPERATURE AND PRESSURE

 CASE =                

             REACTANT                    WT FRACTION      ENERGY      TEMP
                                          (SEE NOTE)     KJ/KG-MOL      K  
             H2                           1.0000000         0.000      0.000

 O/F=    0.00000  %FUEL=100.000000  R,EQ.RATIO= 0.000000  PHI,EQ.RATIO= 0.000000

 THERMODYNAMIC PROPERTIES

 P, BAR            44.000   44.000   44.000   44.000   44.000   44.000   44.000   44.000
 T, K             1540.00  1550.00  1560.00  1570.00  1580.00  1590.00  1600.00  1610.00
 RHO, KG/CU M    6.9273-1 6.8826-1 6.8384-1 6.7949-1 6.7519-1 6.7094-1 6.6675-1 6.6261-1
 H, KJ/KG         18643.9  18805.2  18966.7  19128.4  19290.3  19452.5  19614.8  19777.4
 U, KJ/KG         12292.2  12412.2  12532.5  12652.9  12773.6  12894.5  13015.6  13136.9
 G, KJ/KG        -94597.2 -95333.1 -96070.0 -96807.9 -97546.9 -98286.9 -99027.9 -99769.9
 S, KJ/(KG)(K)    73.5332  73.6376  73.7415  73.8448  73.9476  74.0499  74.1517  74.2530

 M, (1/n)           2.016    2.016    2.016    2.016    2.016    2.016    2.016    2.016
 (dLV/dLP)t      -1.00000 -1.00000 -1.00000 -1.00000 -1.00000 -1.00000 -1.00000 -1.00000
 (dLV/dLT)p        1.0000   1.0000   1.0000   1.0001   1.0001   1.0001   1.0001   1.0001
 Cp, KJ/(KG)(K)   16.1161  16.1379  16.1597  16.1814  16.2032  16.2250  16.2467  16.2685
 GAMMAs            1.3440   1.3434   1.3428   1.3421   1.3415   1.3409   1.3403   1.3397
 SON VEL,M/SEC     2921.8   2930.6   2939.3   2948.0   2956.7   2965.4   2974.1   2982.7

 TRANSPORT PROPERTIES (GASES ONLY)
   CONDUCTIVITY IN UNITS OF MILLIWATTS/(CM)(K)

 VISC,MILLIPOISE  0.27779  0.27906  0.28033  0.28159  0.28286  0.28412  0.28538  0.28664

  WITH EQUILIBRIUM REACTIONS

 Cp, KJ/(KG)(K)   16.1161  16.1379  16.1597  16.1814  16.2032  16.2250  16.2467  16.2685
 CONDUCTIVITY      6.3851   6.4223   6.4595   6.4969   6.5343   6.5718   6.6093   6.6470
 PRANDTL NUMBER    0.7012   0.7012   0.7013   0.7013   0.7014   0.7015   0.7015   0.7016

  WITH FROZEN REACTIONS

 Cp, KJ/(KG)(K)   16.1107  16.1319  16.1531  16.1742  16.1952  16.2161  16.2370  16.2578
 CONDUCTIVITY      6.3811   6.4179   6.4547   6.4915   6.5283   6.5651   6.6020   6.6389
 PRANDTL NUMBER    0.7014   0.7014   0.7015   0.7016   0.7017   0.7018   0.7019   0.7020

 MOLE FRACTIONS

 *H               0.00000  0.00000  0.00001  0.00001  0.00001  0.00001  0.00001  0.00001
 *H2              1.00000  1.00000  0.99999  0.99999  0.99999  0.99999  0.99999  0.99999

  * THERMODYNAMIC PROPERTIES FITTED TO 20000.K

 NOTE. WEIGHT FRACTION OF FUEL IN TOTAL FUELS AND OF OXIDANT IN TOTAL OXIDANTS









               THERMODYNAMIC EQUILIBRIUM PROPERTIES AT ASSIGNED

                           TEMPERATURE AND PRESSURE

 CASE =                

             REACTANT                    WT FRACTION      ENERGY      TEMP
                                          (SEE NOTE)     KJ/KG-MOL      K  
             H2                           1.0000000         0.000      0.000

 O/F=    0.00000  %FUEL=100.000000  R,EQ.RATIO= 0.000000  PHI,EQ.RATIO= 0.000000

 THERMODYNAMIC PROPERTIES

 P, BAR            44.000   44.000   44.000   49.000   49.000   49.000   49.000   49.000
 T, K             1620.00  1630.00  1640.00  1500.00  1510.00  1520.00  1530.00  1540.00
 RHO, KG/CU M    6.5851-1 6.5447-1 6.5048-1 7.9202-1 7.8677-1 7.8160-1 7.7649-1 7.7144-1
 H, KJ/KG         19940.2  20103.2  20266.4  18001.0  18161.4  18322.0  18482.9  18643.9
 U, KJ/KG         13258.5  13380.2  13502.2  11814.3  11933.4  12052.8  12172.4  12292.2
 G, KJ/KG       -100512.9-101257.0-102002.0 -90998.6 -91725.7 -92453.9 -93183.2 -93913.6
 S, KJ/(KG)(K)    74.3538  74.4541  74.5539  72.6664  72.7729  72.8789  72.9844  73.0893

 M, (1/n)           2.016    2.016    2.016    2.016    2.016    2.016    2.016    2.016
 (dLV/dLP)t      -1.00000 -1.00000 -1.00000 -1.00000 -1.00000 -1.00000 -1.00000 -1.00000
 (dLV/dLT)p        1.0001   1.0001   1.0001   1.0000   1.0000   1.0000   1.0000   1.0000
 Cp, KJ/(KG)(K)   16.2902  16.3120  16.3337  16.0285  16.0503  16.0722  16.0940  16.1158
 GAMMAs            1.3391   1.3385   1.3379   1.3465   1.3459   1.3452   1.3446   1.3440
 SON VEL,M/SEC     2991.2   2999.8   3008.3   2886.3   2895.2   2904.1   2912.9   2921.8

 TRANSPORT PROPERTIES (GASES ONLY)
   CONDUCTIVITY IN UNITS OF MILLIWATTS/(CM)(K)

 VISC,MILLIPOISE  0.28790  0.28916  0.29042  0.27270  0.27398  0.27525  0.27652  0.27779

  WITH EQUILIBRIUM REACTIONS

 Cp, KJ/(KG)(K)   16.2902  16.3120  16.3337  16.0284  16.0503  16.0722  16.0940  16.1158
 CONDUCTIVITY      6.6847   6.7225   6.7605   6.2368   6.2737   6.3107   6.3477   6.3849
 PRANDTL NUMBER    0.7016   0.7016   0.7017   0.7008   0.7009   0.7010   0.7011   0.7012

  WITH FROZEN REACTIONS

 Cp, KJ/(KG)(K)   16.2785  16.2992  16.3198  16.0251  16.0466  16.0680  16.0894  16.1107
 CONDUCTIVITY      6.6758   6.7127   6.7497   6.2344   6.2710   6.3077   6.3444   6.3811
 PRANDTL NUMBER    0.7020   0.7021   0.7022   0.7010   0.7011   0.7012   0.7013   0.7014

 MOLE FRACTIONS

 *H               0.00001  0.00001  0.00001  0.00000  0.00000  0.00000  0.00000  0.00000
 *H2              0.99999  0.99999  0.99999  1.00000  1.00000  1.00000  1.00000  1.00000

  * THERMODYNAMIC PROPERTIES FITTED TO 20000.K

 NOTE. WEIGHT FRACTION OF FUEL IN TOTAL FUELS AND OF OXIDANT IN TOTAL OXIDANTS









               THERMODYNAMIC EQUILIBRIUM PROPERTIES AT ASSIGNED

                           TEMPERATURE AND PRESSURE

 CASE =                

             REACTANT                    WT FRACTION      ENERGY      TEMP
                                          (SEE NOTE)     KJ/KG-MOL      K  
             H2                           1.0000000         0.000      0.000

 O/F=    0.00000  %FUEL=100.000000  R,EQ.RATIO= 0.000000  PHI,EQ.RATIO= 0.000000

 THERMODYNAMIC PROPERTIES

 P, BAR            49.000   49.000   49.000   49.000   49.000   49.000   49.000   49.000
 T, K             1550.00  1560.00  1570.00  1580.00  1590.00  1600.00  1610.00  1620.00
 RHO, KG/CU M    7.6647-1 7.6155-1 7.5670-1 7.5191-1 7.4718-1 7.4251-1 7.3790-1 7.3335-1
 H, KJ/KG         18805.2  18966.7  19128.4  19290.3  19452.4  19614.8  19777.3  19940.1
 U, KJ/KG         12412.2  12532.4  12652.9  12773.6  12894.5  13015.6  13136.9  13258.4
 G, KJ/KG        -94645.0 -95377.5 -96111.0 -96845.5 -97581.0 -98317.6 -99055.2 -99793.8
 S, KJ/(KG)(K)    73.1937  73.2975  73.4008  73.5036  73.6059  73.7077  73.8090  73.9098

 M, (1/n)           2.016    2.016    2.016    2.016    2.016    2.016    2.016    2.016
 (dLV/dLP)t      -1.00000 -1.00000 -1.00000 -1.00000 -1.00000 -1.00000 -1.00000 -1.00000
 (dLV/dLT)p        1.0000   1.0000   1.0000   1.0001   1.0001   1.0001   1.0001   1.0001
 Cp, KJ/(KG)(K)   16.1376  16.1593  16.1811  16.2028  16.2245  16.2462  16.2679  16.2896
 GAMMAs            1.3434   1.3428   1.3421   1.3415   1.3409   1.3403   1.3397   1.3391
 SON VEL,M/SEC     2930.6   2939.3   2948.1   2956.8   2965.4   2974.1   2982.7   2991.3

 TRANSPORT PROPERTIES (GASES ONLY)
   CONDUCTIVITY IN UNITS OF MILLIWATTS/(CM)(K)

 VISC,MILLIPOISE  0.27906  0.28033  0.28159  0.28286  0.28412  0.28538  0.28664  0.28790

  WITH EQUILIBRIUM REACTIONS

 Cp, KJ/(KG)(K)   16.1376  16.1593  16.1811  16.2028  16.2245  16.2462  16.2679  16.2896
 CONDUCTIVITY      6.4220   6.4593   6.4966   6.5340   6.5714   6.6090   6.6466   6.6842
 PRANDTL NUMBER    0.7012   0.7013   0.7014   0.7014   0.7015   0.7015   0.7016   0.7016

  WITH FROZEN REACTIONS

 Cp, KJ/(KG)(K)   16.1319  16.1531  16.1742  16.1952  16.2161  16.2370  16.2578  16.2785
 CONDUCTIVITY      6.4179   6.4546   6.4915   6.5283   6.5651   6.6020   6.6389   6.6758
 PRANDTL NUMBER    0.7014   0.7015   0.7016   0.7017   0.7018   0.7019   0.7020   0.7020

 MOLE FRACTIONS

 *H               0.00000  0.00001  0.00001  0.00001  0.00001  0.00001  0.00001  0.00001
 *H2              1.00000  0.99999  0.99999  0.99999  0.99999  0.99999  0.99999  0.99999

  * THERMODYNAMIC PROPERTIES FITTED TO 20000.K

 NOTE. WEIGHT FRACTION OF FUEL IN TOTAL FUELS AND OF OXIDANT IN TOTAL OXIDANTS









               THERMODYNAMIC EQUILIBRIUM PROPERTIES AT ASSIGNED

                           TEMPERATURE AND PRESSURE

 CASE =                

             REACTANT                    WT FRACTION      ENERGY      TEMP
                                          (SEE NOTE)     KJ/KG-MOL      K  
             H2                           1.0000000         0.000      0.000

 O/F=    0.00000  %FUEL=100.000000  R,EQ.RATIO= 0.000000  PHI,EQ.RATIO= 0.000000

 THERMODYNAMIC PROPERTIES

 P, BAR            49.000   49.000   54.000   54.000   54.000   54.000   54.000   54.000
 T, K             1630.00  1640.00  1500.00  1510.00  1520.00  1530.00  1540.00  1550.00
 RHO, KG/CU M    7.2885-1 7.2440-1 8.7283-1 8.6705-1 8.6135-1 8.5572-1 8.5016-1 8.4468-1
 H, KJ/KG         20103.1  20266.4  18001.0  18161.4  18322.0  18482.8  18643.9  18805.1
 U, KJ/KG         13380.2  13502.2  11814.3  11933.4  12052.8  12172.4  12292.2  12412.2
 G, KJ/KG       -100533.4-101274.0 -90397.5 -91120.6 -91844.8 -92570.1 -93296.4 -94023.8
 S, KJ/(KG)(K)    74.0101  74.1100  72.2657  72.3722  72.4782  72.5836  72.6885  72.7929

 M, (1/n)           2.016    2.016    2.016    2.016    2.016    2.016    2.016    2.016
 (dLV/dLP)t      -1.00000 -1.00000 -1.00000 -1.00000 -1.00000 -1.00000 -1.00000 -1.00000
 (dLV/dLT)p        1.0001   1.0001   1.0000   1.0000   1.0000   1.0000   1.0000   1.0000
 Cp, KJ/(KG)(K)   16.3113  16.3330  16.0283  16.0501  16.0720  16.0938  16.1155  16.1373
 GAMMAs            1.3385   1.3379   1.3465   1.3459   1.3453   1.3446   1.3440   1.3434
 SON VEL,M/SEC     2999.8   3008.3   2886.3   2895.2   2904.1   2912.9   2921.8   2930.6

 TRANSPORT PROPERTIES (GASES ONLY)
   CONDUCTIVITY IN UNITS OF MILLIWATTS/(CM)(K)

 VISC,MILLIPOISE  0.28916  0.29042  0.27270  0.27398  0.27525  0.27652  0.27779  0.27906

  WITH EQUILIBRIUM REACTIONS

 Cp, KJ/(KG)(K)   16.3113  16.3330  16.0283  16.0501  16.0720  16.0938  16.1155  16.1373
 CONDUCTIVITY      6.7220   6.7599   6.2367   6.2736   6.3106   6.3476   6.3847   6.4218
 PRANDTL NUMBER    0.7017   0.7017   0.7008   0.7009   0.7010   0.7011   0.7012   0.7012

  WITH FROZEN REACTIONS

 Cp, KJ/(KG)(K)   16.2992  16.3198  16.0251  16.0466  16.0680  16.0894  16.1107  16.1319
 CONDUCTIVITY      6.7127   6.7497   6.2344   6.2710   6.3077   6.3444   6.3811   6.4179
 PRANDTL NUMBER    0.7021   0.7022   0.7010   0.7011   0.7012   0.7013   0.7014   0.7014

 MOLE FRACTIONS

 *H               0.00001  0.00001  0.00000  0.00000  0.00000  0.00000  0.00000  0.00000
 *H2              0.99999  0.99999  1.00000  1.00000  1.00000  1.00000  1.00000  1.00000

  * THERMODYNAMIC PROPERTIES FITTED TO 20000.K

 NOTE. WEIGHT FRACTION OF FUEL IN TOTAL FUELS AND OF OXIDANT IN TOTAL OXIDANTS









               THERMODYNAMIC EQUILIBRIUM PROPERTIES AT ASSIGNED

                           TEMPERATURE AND PRESSURE

 CASE =                

             REACTANT                    WT FRACTION      ENERGY      TEMP
                                          (SEE NOTE)     KJ/KG-MOL      K  
             H2                           1.0000000         0.000      0.000

 O/F=    0.00000  %FUEL=100.000000  R,EQ.RATIO= 0.000000  PHI,EQ.RATIO= 0.000000

 THERMODYNAMIC PROPERTIES

 P, BAR            54.000   54.000   54.000   54.000   54.000   54.000   54.000   54.000
 T, K             1560.00  1570.00  1580.00  1590.00  1600.00  1610.00  1620.00  1630.00
 RHO, KG/CU M    8.3926-1 8.3392-1 8.2864-1 8.2343-1 8.1828-1 8.1320-1 8.0818-1 8.0322-1
 H, KJ/KG         18966.6  19128.3  19290.2  19452.4  19614.7  19777.3  19940.1  20103.1
 U, KJ/KG         12532.4  12652.9  12773.5  12894.4  13015.5  13136.8  13258.4  13380.1
 G, KJ/KG        -94752.3 -95481.8 -96212.3 -96943.8 -97676.4 -98410.0 -99144.6 -99880.2
 S, KJ/(KG)(K)    72.8967  73.0001  73.1029  73.2052  73.3070  73.4082  73.5090  73.6093

 M, (1/n)           2.016    2.016    2.016    2.016    2.016    2.016    2.016    2.016
 (dLV/dLP)t      -1.00000 -1.00000 -1.00000 -1.00000 -1.00000 -1.00000 -1.00000 -1.00000
 (dLV/dLT)p        1.0000   1.0000   1.0001   1.0001   1.0001   1.0001   1.0001   1.0001
 Cp, KJ/(KG)(K)   16.1590  16.1807  16.2024  16.2241  16.2458  16.2674  16.2891  16.3107
 GAMMAs            1.3428   1.3422   1.3415   1.3409   1.3403   1.3397   1.3391   1.3385
 SON VEL,M/SEC     2939.3   2948.1   2956.8   2965.4   2974.1   2982.7   2991.3   2999.8

 TRANSPORT PROPERTIES (GASES ONLY)
   CONDUCTIVITY IN UNITS OF MILLIWATTS/(CM)(K)

 VISC,MILLIPOISE  0.28033  0.28159  0.28286  0.28412  0.28538  0.28664  0.28790  0.28916

  WITH EQUILIBRIUM REACTIONS

 Cp, KJ/(KG)(K)   16.1590  16.1807  16.2024  16.2241  16.2458  16.2674  16.2891  16.3107
 CONDUCTIVITY      6.4591   6.4964   6.5337   6.5711   6.6086   6.6462   6.6838   6.7216
 PRANDTL NUMBER    0.7013   0.7014   0.7014   0.7015   0.7015   0.7016   0.7016   0.7017

  WITH FROZEN REACTIONS

 Cp, KJ/(KG)(K)   16.1531  16.1742  16.1952  16.2161  16.2370  16.2578  16.2785  16.2992
 CONDUCTIVITY      6.4546   6.4915   6.5283   6.5651   6.6020   6.6389   6.6758   6.7127
 PRANDTL NUMBER    0.7015   0.7016   0.7017   0.7018   0.7019   0.7020   0.7020   0.7021

 MOLE FRACTIONS

 *H               0.00000  0.00001  0.00001  0.00001  0.00001  0.00001  0.00001  0.00001
 *H2              1.00000  0.99999  0.99999  0.99999  0.99999  0.99999  0.99999  0.99999

  * THERMODYNAMIC PROPERTIES FITTED TO 20000.K

 NOTE. WEIGHT FRACTION OF FUEL IN TOTAL FUELS AND OF OXIDANT IN TOTAL OXIDANTS









               THERMODYNAMIC EQUILIBRIUM PROPERTIES AT ASSIGNED

                           TEMPERATURE AND PRESSURE

 CASE =                

             REACTANT                    WT FRACTION      ENERGY      TEMP
                                          (SEE NOTE)     KJ/KG-MOL      K  
             H2                           1.0000000         0.000      0.000

 O/F=    0.00000  %FUEL=100.000000  R,EQ.RATIO= 0.000000  PHI,EQ.RATIO= 0.000000

 THERMODYNAMIC PROPERTIES

 P, BAR            54.000
 T, K             1640.00
 RHO, KG/CU M    7.9832-1
 H, KJ/KG         20266.3
 U, KJ/KG         13502.1
 G, KJ/KG       -100616.7
 S, KJ/(KG)(K)    73.7092

 M, (1/n)           2.016
 (dLV/dLP)t      -1.00000
 (dLV/dLT)p        1.0001
 Cp, KJ/(KG)(K)   16.3324
 GAMMAs            1.3379
 SON VEL,M/SEC     3008.3

 TRANSPORT PROPERTIES (GASES ONLY)
   CONDUCTIVITY IN UNITS OF MILLIWATTS/(CM)(K)

 VISC,MILLIPOISE  0.29042

  WITH EQUILIBRIUM REACTIONS

 Cp, KJ/(KG)(K)   16.3324
 CONDUCTIVITY      6.7594
 PRANDTL NUMBER    0.7017

  WITH FROZEN REACTIONS

 Cp, KJ/(KG)(K)   16.3198
 CONDUCTIVITY      6.7497
 PRANDTL NUMBER    0.7022

 MOLE FRACTIONS

 *H               0.00001
 *H2              0.99999

  * THERMODYNAMIC PROPERTIES FITTED TO 20000.K

 NOTE. WEIGHT FRACTION OF FUEL IN TOTAL FUELS AND OF OXIDANT IN TOTAL OXIDANTS



  
