
 *******************************************************************************

         NASA-GLENN CHEMICAL EQUILIBRIUM PROGRAM CEA2, MAY 21, 2004
                   BY  BONNIE MCBRIDE AND SANFORD GORDON
      REFS: NASA RP-1311, PART I, 1994 AND NASA RP-1311, PART II, 1996

 *******************************************************************************



  prob tp ions
  p,bar= 2.5,2.8,3.1,3.5,3.9,4.4,4.9,5.4,6.0,6.7,7.4,8.25,9.1,10.0,11.0
  t,k= 3450,3460,3470,3480,3490,3500,3510,3520,3530,3540,3550,3560,3570,3580,3590
  
  reac
  na H2                wt%=100.0000
  
  output short
  output siunits
  output transport
  
 end





               THERMODYNAMIC EQUILIBRIUM PROPERTIES AT ASSIGNED

                           TEMPERATURE AND PRESSURE

 CASE =                

             REACTANT                    WT FRACTION      ENERGY      TEMP
                                          (SEE NOTE)     KJ/KG-MOL      K  
             H2                           1.0000000         0.000      0.000

 O/F=    0.00000  %FUEL=100.000000  R,EQ.RATIO= 0.000000  PHI,EQ.RATIO= 0.000000

 THERMODYNAMIC PROPERTIES

 P, BAR            2.5000   2.5000   2.5000   2.5000   2.5000   2.5000   2.5000   2.5000
 T, K             3450.00  3460.00  3470.00  3480.00  3490.00  3500.00  3510.00  3520.00
 RHO, KG/CU M    1.5088-2 1.4996-2 1.4904-2 1.4812-2 1.4721-2 1.4629-2 1.4537-2 1.4446-2
 H, KJ/KG         90038.6  91090.4  92156.1  93235.4  94328.6  95435.4  96556.1  97690.5
 U, KJ/KG         73469.1  74419.3  75382.1  76357.5  77345.5  78346.0  79359.2  80384.9
 G, KJ/KG       -295491.4-296609.1-297731.0-298856.2-299984.4-301115.9-302250.5-303388.3
 S, KJ/(KG)(K)   111.7478 112.0519 112.3594 112.6700 112.9837 113.3004 113.6201 113.9428

 M, (1/n)           1.731    1.726    1.720    1.714    1.709    1.703    1.697    1.691
 (dLV/dLP)t      -1.06869 -1.06995 -1.07121 -1.07248 -1.07375 -1.07502 -1.07629 -1.07757
 (dLV/dLT)p        2.1050   2.1220   2.1390   2.1560   2.1729   2.1898   2.2067   2.2234
 Cp, KJ/(KG)(K)  104.5197 105.8836 107.2518 108.6237 109.9986 111.3759 112.7550 114.1352
 GAMMAs            1.1560   1.1560   1.1561   1.1562   1.1562   1.1564   1.1565   1.1566
 SON VEL,M/SEC     4376.5   4390.0   4403.6   4417.4   4431.3   4445.4   4459.6   4473.9

 TRANSPORT PROPERTIES (GASES ONLY)
   CONDUCTIVITY IN UNITS OF MILLIWATTS/(CM)(K)

 VISC,MILLIPOISE  0.57114  0.57316  0.57517  0.57717  0.57915  0.58111  0.58306  0.58499

  WITH EQUILIBRIUM REACTIONS

 Cp, KJ/(KG)(K)  104.5197 105.8836 107.2518 108.6237 109.9986 111.3759 112.7550 114.1352
 CONDUCTIVITY    121.7932 123.4527 125.1100 126.7636 128.4126 130.0559 131.6925 133.3214
 PRANDTL NUMBER    0.4901   0.4916   0.4931   0.4946   0.4961   0.4976   0.4992   0.5008

  WITH FROZEN REACTIONS

 Cp, KJ/(KG)(K)   19.1562  19.1710  19.1859  19.2008  19.2157  19.2306  19.2455  19.2604
 CONDUCTIVITY     15.6686  15.7289  15.7894  15.8493  15.9086  15.9672  16.0252  16.0825
 PRANDTL NUMBER    0.6983   0.6986   0.6989   0.6992   0.6995   0.6999   0.7002   0.7006

 MOLE FRACTIONS

 *H               0.28243  0.28796  0.29354  0.29916  0.30484  0.31056  0.31632  0.32213
 *H2              0.71756  0.71204  0.70646  0.70084  0.69516  0.68944  0.68368  0.67787

  * THERMODYNAMIC PROPERTIES FITTED TO 20000.K

 NOTE. WEIGHT FRACTION OF FUEL IN TOTAL FUELS AND OF OXIDANT IN TOTAL OXIDANTS









               THERMODYNAMIC EQUILIBRIUM PROPERTIES AT ASSIGNED

                           TEMPERATURE AND PRESSURE

 CASE =                

             REACTANT                    WT FRACTION      ENERGY      TEMP
                                          (SEE NOTE)     KJ/KG-MOL      K  
             H2                           1.0000000         0.000      0.000

 O/F=    0.00000  %FUEL=100.000000  R,EQ.RATIO= 0.000000  PHI,EQ.RATIO= 0.000000

 THERMODYNAMIC PROPERTIES

 P, BAR            2.5000   2.5000   2.5000   2.5000   2.5000   2.5000   2.5000   2.8000
 T, K             3530.00  3540.00  3550.00  3560.00  3570.00  3580.00  3590.00  3450.00
 RHO, KG/CU M    1.4355-2 1.4264-2 1.4173-2 1.4082-2 1.3992-2 1.3902-2 1.3812-2 1.7028-2
 H, KJ/KG         98838.8 100000.8 101176.7 102366.3 103569.7 104786.8 106017.7  88016.7
 U, KJ/KG         81423.2  82474.2  83537.7  84613.8  85702.4  86803.4  87917.0  71572.9
 G, KJ/KG       -304529.3-305673.7-306821.3-307972.2-309126.6-310284.3-311445.4-293619.5
 S, KJ/(KG)(K)   114.2686 114.5973 114.9290 115.2636 115.6012 115.9417 116.2850 110.6192

 M, (1/n)           1.685    1.679    1.673    1.667    1.661    1.655    1.649    1.744
 (dLV/dLP)t      -1.07884 -1.08012 -1.08139 -1.08267 -1.08394 -1.08521 -1.08648 -1.06570
 (dLV/dLT)p        2.2402   2.2568   2.2733   2.2897   2.3060   2.3221   2.3382   2.0567
 Cp, KJ/(KG)(K)  115.5157 116.8958 118.2748 119.6519 121.0262 122.3971 123.7635 100.1534
 GAMMAs            1.1567   1.1569   1.1570   1.1572   1.1574   1.1575   1.1577   1.1569
 SON VEL,M/SEC     4488.3   4502.9   4517.6   4532.4   4547.4   4562.5   4577.7   4361.6

 TRANSPORT PROPERTIES (GASES ONLY)
   CONDUCTIVITY IN UNITS OF MILLIWATTS/(CM)(K)

 VISC,MILLIPOISE  0.58691  0.58880  0.59067  0.59252  0.59435  0.59616  0.59794  0.56949

  WITH EQUILIBRIUM REACTIONS

 Cp, KJ/(KG)(K)  115.5157 116.8958 118.2748 119.6519 121.0262 122.3971 123.7635 100.1534
 CONDUCTIVITY    134.9414 136.5517 138.1509 139.7381 141.3121 142.8718 144.4161 117.1080
 PRANDTL NUMBER    0.5024   0.5040   0.5057   0.5074   0.5090   0.5107   0.5124   0.4870

  WITH FROZEN REACTIONS

 Cp, KJ/(KG)(K)   19.2753  19.2903  19.3052  19.3201  19.3350  19.3499  19.3648  19.1406
 CONDUCTIVITY     16.1391  16.1950  16.2501  16.3044  16.3579  16.4106  16.4625  15.6224
 PRANDTL NUMBER    0.7010   0.7013   0.7017   0.7021   0.7025   0.7029   0.7034   0.6977

 MOLE FRACTIONS

 *H               0.32799  0.33388  0.33982  0.34579  0.35180  0.35785  0.36393  0.26931
 *H2              0.67201  0.66612  0.66018  0.65421  0.64820  0.64215  0.63607  0.73069

  * THERMODYNAMIC PROPERTIES FITTED TO 20000.K

 NOTE. WEIGHT FRACTION OF FUEL IN TOTAL FUELS AND OF OXIDANT IN TOTAL OXIDANTS









               THERMODYNAMIC EQUILIBRIUM PROPERTIES AT ASSIGNED

                           TEMPERATURE AND PRESSURE

 CASE =                

             REACTANT                    WT FRACTION      ENERGY      TEMP
                                          (SEE NOTE)     KJ/KG-MOL      K  
             H2                           1.0000000         0.000      0.000

 O/F=    0.00000  %FUEL=100.000000  R,EQ.RATIO= 0.000000  PHI,EQ.RATIO= 0.000000

 THERMODYNAMIC PROPERTIES

 P, BAR            2.8000   2.8000   2.8000   2.8000   2.8000   2.8000   2.8000   2.8000
 T, K             3460.00  3470.00  3480.00  3490.00  3500.00  3510.00  3520.00  3530.00
 RHO, KG/CU M    1.6926-2 1.6825-2 1.6724-2 1.6622-2 1.6521-2 1.6420-2 1.6320-2 1.6219-2
 H, KJ/KG         89024.7  90046.0  91080.4  92128.0  93189.0  94263.2  95350.8  96451.7
 U, KJ/KG         72482.4  73404.0  74337.6  75283.3  76241.2  77211.3  78193.5  79187.9
 G, KJ/KG       -294727.0-295837.6-296951.1-298067.7-299187.2-300309.8-301435.5-302564.3
 S, KJ/(KG)(K)   110.9109 111.2056 111.5033 111.8039 112.1075 112.4140 112.7234 113.0357

 M, (1/n)           1.739    1.734    1.728    1.723    1.717    1.711    1.706    1.700
 (dLV/dLP)t      -1.06692 -1.06815 -1.06938 -1.07062 -1.07187 -1.07311 -1.07437 -1.07562
 (dLV/dLT)p        2.0733   2.0900   2.1066   2.1233   2.1399   2.1564   2.1730   2.1895
 Cp, KJ/(KG)(K)  101.4650 102.7817 104.1031 105.4288 106.7580 108.0903 109.4251 110.7617
 GAMMAs            1.1569   1.1570   1.1570   1.1571   1.1572   1.1573   1.1574   1.1575
 SON VEL,M/SEC     4374.7   4388.0   4401.3   4414.9   4428.5   4442.2   4456.1   4470.2

 TRANSPORT PROPERTIES (GASES ONLY)
   CONDUCTIVITY IN UNITS OF MILLIWATTS/(CM)(K)

 VISC,MILLIPOISE  0.57153  0.57357  0.57559  0.57760  0.57960  0.58158  0.58355  0.58550

  WITH EQUILIBRIUM REACTIONS

 Cp, KJ/(KG)(K)  101.4650 102.7817 104.1031 105.4288 106.7580 108.0903 109.4251 110.7617
 CONDUCTIVITY    118.7344 120.3603 121.9846 123.6066 125.2253 126.8398 128.4491 130.0524
 PRANDTL NUMBER    0.4884   0.4898   0.4912   0.4927   0.4941   0.4956   0.4971   0.4987

  WITH FROZEN REACTIONS

 Cp, KJ/(KG)(K)   19.1552  19.1699  19.1845  19.1992  19.2138  19.2285  19.2432  19.2579
 CONDUCTIVITY     15.6844  15.7460  15.8071  15.8677  15.9276  15.9870  16.0458  16.1040
 PRANDTL NUMBER    0.6980   0.6983   0.6986   0.6989   0.6992   0.6995   0.6998   0.7002

 MOLE FRACTIONS

 *H               0.27463  0.28001  0.28544  0.29092  0.29644  0.30201  0.30763  0.31329
 *H2              0.72537  0.71999  0.71456  0.70908  0.70356  0.69799  0.69237  0.68671

  * THERMODYNAMIC PROPERTIES FITTED TO 20000.K

 NOTE. WEIGHT FRACTION OF FUEL IN TOTAL FUELS AND OF OXIDANT IN TOTAL OXIDANTS









               THERMODYNAMIC EQUILIBRIUM PROPERTIES AT ASSIGNED

                           TEMPERATURE AND PRESSURE

 CASE =                

             REACTANT                    WT FRACTION      ENERGY      TEMP
                                          (SEE NOTE)     KJ/KG-MOL      K  
             H2                           1.0000000         0.000      0.000

 O/F=    0.00000  %FUEL=100.000000  R,EQ.RATIO= 0.000000  PHI,EQ.RATIO= 0.000000

 THERMODYNAMIC PROPERTIES

 P, BAR            2.8000   2.8000   2.8000   2.8000   2.8000   2.8000   3.1000   3.1000
 T, K             3540.00  3550.00  3560.00  3570.00  3580.00  3590.00  3450.00  3460.00
 RHO, KG/CU M    1.6118-2 1.6018-2 1.5918-2 1.5818-2 1.5718-2 1.5618-2 1.8976-2 1.8865-2
 H, KJ/KG         97566.0  98693.7  99834.8 100989.2 102157.1 103338.2  86289.2  87259.5
 U, KJ/KG         80194.6  81213.4  82244.5  83287.7  84343.1  85410.7  69952.9  70827.2
 G, KJ/KG       -303696.2-304831.3-305969.6-307111.2-308255.9-309404.0-291951.3-293049.0
 S, KJ/(KG)(K)   113.3509 113.6690 113.9900 114.3138 114.6405 114.9700 109.6349 109.9157

 M, (1/n)           1.694    1.689    1.683    1.677    1.671    1.665    1.756    1.751
 (dLV/dLP)t      -1.07688 -1.07813 -1.07939 -1.08065 -1.08191 -1.08317 -1.06307 -1.06426
 (dLV/dLT)p        2.2059   2.2223   2.2386   2.2548   2.2709   2.2869   2.0144   2.0307
 Cp, KJ/(KG)(K)  112.0996 113.4380 114.7762 116.1136 117.4495 118.7831  96.3919  97.6560
 GAMMAs            1.1576   1.1577   1.1579   1.1580   1.1582   1.1583   1.1578   1.1578
 SON VEL,M/SEC     4484.3   4498.6   4513.0   4527.5   4542.2   4557.0   4349.0   4361.8

 TRANSPORT PROPERTIES (GASES ONLY)
   CONDUCTIVITY IN UNITS OF MILLIWATTS/(CM)(K)

 VISC,MILLIPOISE  0.58744  0.58936  0.59126  0.59314  0.59500  0.59684  0.56796  0.57002

  WITH EQUILIBRIUM REACTIONS

 Cp, KJ/(KG)(K)  112.0996 113.4380 114.7762 116.1136 117.4495 118.7831  96.3919  97.6560
 CONDUCTIVITY    131.6486 133.2367 134.8157 136.3847 137.9424 139.4880 113.0059 114.5989
 PRANDTL NUMBER    0.5002   0.5018   0.5034   0.5050   0.5066   0.5082   0.4845   0.4857

  WITH FROZEN REACTIONS

 Cp, KJ/(KG)(K)   19.2725  19.2872  19.3019  19.3166  19.3312  19.3459  19.1274  19.1418
 CONDUCTIVITY     16.1615  16.2183  16.2744  16.3298  16.3844  16.4382  15.5795  15.6423
 PRANDTL NUMBER    0.7005   0.7009   0.7012   0.7016   0.7020   0.7024   0.6973   0.6975

 MOLE FRACTIONS

 *H               0.31899  0.32474  0.33053  0.33636  0.34222  0.34813  0.25793  0.26308
 *H2              0.68101  0.67526  0.66947  0.66364  0.65778  0.65187  0.74207  0.73692

  * THERMODYNAMIC PROPERTIES FITTED TO 20000.K

 NOTE. WEIGHT FRACTION OF FUEL IN TOTAL FUELS AND OF OXIDANT IN TOTAL OXIDANTS









               THERMODYNAMIC EQUILIBRIUM PROPERTIES AT ASSIGNED

                           TEMPERATURE AND PRESSURE

 CASE =                

             REACTANT                    WT FRACTION      ENERGY      TEMP
                                          (SEE NOTE)     KJ/KG-MOL      K  
             H2                           1.0000000         0.000      0.000

 O/F=    0.00000  %FUEL=100.000000  R,EQ.RATIO= 0.000000  PHI,EQ.RATIO= 0.000000

 THERMODYNAMIC PROPERTIES

 P, BAR            3.1000   3.1000   3.1000   3.1000   3.1000   3.1000   3.1000   3.1000
 T, K             3470.00  3480.00  3490.00  3500.00  3510.00  3520.00  3530.00  3540.00
 RHO, KG/CU M    1.8755-2 1.8644-2 1.8534-2 1.8423-2 1.8313-2 1.8203-2 1.8093-2 1.7983-2
 H, KJ/KG         88242.4  89238.0  90246.4  91267.7  92301.8  93348.8  94408.8  95481.7
 U, KJ/KG         71713.1  72610.7  73520.0  74441.0  75373.8  76318.4  77274.8  78243.1
 G, KJ/KG       -294149.5-295252.9-296359.2-297468.5-298580.6-299695.7-300813.8-301934.9
 S, KJ/(KG)(K)   110.1994 110.4859 110.7753 111.0675 111.3625 111.6604 111.9611 112.2646

 M, (1/n)           1.745    1.740    1.735    1.729    1.724    1.719    1.713    1.707
 (dLV/dLP)t      -1.06546 -1.06667 -1.06788 -1.06910 -1.07032 -1.07155 -1.07278 -1.07401
 (dLV/dLT)p        2.0470   2.0633   2.0796   2.0959   2.1122   2.1285   2.1448   2.1610
 Cp, KJ/(KG)(K)   98.9261 100.2015 101.4820 102.7670 104.0560 105.3485 106.6439 107.9417
 GAMMAs            1.1578   1.1579   1.1579   1.1580   1.1580   1.1581   1.1582   1.1583
 SON VEL,M/SEC     4374.7   4387.7   4400.9   4414.1   4427.5   4441.1   4454.7   4468.5

 TRANSPORT PROPERTIES (GASES ONLY)
   CONDUCTIVITY IN UNITS OF MILLIWATTS/(CM)(K)

 VISC,MILLIPOISE  0.57207  0.57411  0.57614  0.57816  0.58017  0.58217  0.58415  0.58612

  WITH EQUILIBRIUM REACTIONS

 Cp, KJ/(KG)(K)   98.9261 100.2015 101.4820 102.7670 104.0560 105.3485 106.6439 107.9417
 CONDUCTIVITY    116.1929 117.7871 119.3808 120.9731 122.5632 124.1502 125.7333 127.3115
 PRANDTL NUMBER    0.4871   0.4884   0.4898   0.4912   0.4926   0.4940   0.4955   0.4969

  WITH FROZEN REACTIONS

 Cp, KJ/(KG)(K)   19.1562  19.1706  19.1851  19.1995  19.2140  19.2284  19.2429  19.2574
 CONDUCTIVITY     15.7048  15.7667  15.8283  15.8893  15.9498  16.0097  16.0691  16.1279
 PRANDTL NUMBER    0.6978   0.6981   0.6983   0.6986   0.6989   0.6992   0.6995   0.6999

 MOLE FRACTIONS

 *H               0.26828  0.27353  0.27883  0.28418  0.28957  0.29502  0.30050  0.30604
 *H2              0.73172  0.72647  0.72117  0.71582  0.71043  0.70498  0.69950  0.69396

  * THERMODYNAMIC PROPERTIES FITTED TO 20000.K

 NOTE. WEIGHT FRACTION OF FUEL IN TOTAL FUELS AND OF OXIDANT IN TOTAL OXIDANTS









               THERMODYNAMIC EQUILIBRIUM PROPERTIES AT ASSIGNED

                           TEMPERATURE AND PRESSURE

 CASE =                

             REACTANT                    WT FRACTION      ENERGY      TEMP
                                          (SEE NOTE)     KJ/KG-MOL      K  
             H2                           1.0000000         0.000      0.000

 O/F=    0.00000  %FUEL=100.000000  R,EQ.RATIO= 0.000000  PHI,EQ.RATIO= 0.000000

 THERMODYNAMIC PROPERTIES

 P, BAR            3.1000   3.1000   3.1000   3.1000   3.1000   3.5000   3.5000   3.5000
 T, K             3550.00  3560.00  3570.00  3580.00  3590.00  3450.00  3460.00  3470.00
 RHO, KG/CU M    1.7873-2 1.7764-2 1.7654-2 1.7545-2 1.7436-2 2.1585-2 2.1462-2 2.1339-2
 H, KJ/KG         96567.6  97666.5  98778.4  99903.4 101041.3  84334.1  85261.1  86200.3
 U, KJ/KG         79223.2  80215.2  81219.0  82234.7  83262.3  68119.3  68953.5  69798.7
 G, KJ/KG       -303059.1-304186.4-305316.7-306450.2-307586.9-289976.1-291062.3-292151.3
 S, KJ/(KG)(K)   112.5709 112.8800 113.1919 113.5066 113.8240 108.4957 108.7640 109.0351

 M, (1/n)           1.702    1.696    1.690    1.685    1.679    1.769    1.764    1.759
 (dLV/dLP)t      -1.07525 -1.07649 -1.07773 -1.07897 -1.08022 -1.06003 -1.06118 -1.06234
 (dLV/dLT)p        2.1772   2.1933   2.2093   2.2253   2.2412   1.9655   1.9813   1.9971
 Cp, KJ/(KG)(K)  109.2413 110.5421 111.8435 113.1449 114.4455  92.1020  93.3097  94.5240
 GAMMAs            1.1584   1.1585   1.1587   1.1588   1.1589   1.1589   1.1589   1.1589
 SON VEL,M/SEC     4482.4   4496.4   4510.6   4524.9   4539.3   4334.9   4347.3   4359.8

 TRANSPORT PROPERTIES (GASES ONLY)
   CONDUCTIVITY IN UNITS OF MILLIWATTS/(CM)(K)

 VISC,MILLIPOISE  0.58807  0.59001  0.59193  0.59383  0.59572  0.56610  0.56817  0.57023

  WITH EQUILIBRIUM REACTIONS

 Cp, KJ/(KG)(K)  109.2413 110.5421 111.8435 113.1449 114.4455  92.1020  93.3097  94.5240
 CONDUCTIVITY    128.8839 130.4496 132.0077 133.5572 135.0972 108.2522 109.8020 111.3545
 PRANDTL NUMBER    0.4984   0.5000   0.5015   0.5031   0.5047   0.4816   0.4828   0.4840

  WITH FROZEN REACTIONS

 Cp, KJ/(KG)(K)   19.2718  19.2863  19.3008  19.3152  19.3297  19.1124  19.1266  19.1407
 CONDUCTIVITY     16.1861  16.2436  16.3005  16.3566  16.4121  15.5263  15.5898  15.6531
 PRANDTL NUMBER    0.7002   0.7005   0.7009   0.7012   0.7016   0.6969   0.6971   0.6973

 MOLE FRACTIONS

 *H               0.31161  0.31723  0.32290  0.32860  0.33434  0.24487  0.24981  0.25480
 *H2              0.68839  0.68277  0.67710  0.67140  0.66566  0.75513  0.75019  0.74520

  * THERMODYNAMIC PROPERTIES FITTED TO 20000.K

 NOTE. WEIGHT FRACTION OF FUEL IN TOTAL FUELS AND OF OXIDANT IN TOTAL OXIDANTS









               THERMODYNAMIC EQUILIBRIUM PROPERTIES AT ASSIGNED

                           TEMPERATURE AND PRESSURE

 CASE =                

             REACTANT                    WT FRACTION      ENERGY      TEMP
                                          (SEE NOTE)     KJ/KG-MOL      K  
             H2                           1.0000000         0.000      0.000

 O/F=    0.00000  %FUEL=100.000000  R,EQ.RATIO= 0.000000  PHI,EQ.RATIO= 0.000000

 THERMODYNAMIC PROPERTIES

 P, BAR            3.5000   3.5000   3.5000   3.5000   3.5000   3.5000   3.5000   3.5000
 T, K             3480.00  3490.00  3500.00  3510.00  3520.00  3530.00  3540.00  3550.00
 RHO, KG/CU M    2.1217-2 2.1094-2 2.0971-2 2.0849-2 2.0727-2 2.0604-2 2.0482-2 2.0360-2
 H, KJ/KG         87151.6  88115.2  89091.1  90079.3  91079.9  92092.9  93118.3  94156.3
 U, KJ/KG         70655.2  71522.8  72401.7  73291.8  74193.3  75106.2  76030.4  76966.1
 G, KJ/KG       -293243.1-294337.5-295434.8-296534.8-297637.7-298743.5-299852.1-300963.6
 S, KJ/(KG)(K)   109.3088 109.5853 109.8645 110.1465 110.4311 110.7185 111.0086 111.3014

 M, (1/n)           1.754    1.749    1.744    1.738    1.733    1.728    1.722    1.717
 (dLV/dLP)t      -1.06351 -1.06469 -1.06587 -1.06706 -1.06826 -1.06946 -1.07066 -1.07187
 (dLV/dLT)p        2.0130   2.0289   2.0448   2.0607   2.0766   2.0926   2.1085   2.1243
 Cp, KJ/(KG)(K)   95.7444  96.9705  98.2019  99.4383 100.6791 101.9240 103.1723 104.4237
 GAMMAs            1.1589   1.1589   1.1590   1.1590   1.1591   1.1591   1.1592   1.1593
 SON VEL,M/SEC     4372.4   4385.1   4398.0   4411.0   4424.1   4437.3   4450.6   4464.1

 TRANSPORT PROPERTIES (GASES ONLY)
   CONDUCTIVITY IN UNITS OF MILLIWATTS/(CM)(K)

 VISC,MILLIPOISE  0.57229  0.57434  0.57638  0.57841  0.58043  0.58244  0.58444  0.58643

  WITH EQUILIBRIUM REACTIONS

 Cp, KJ/(KG)(K)   95.7444  96.9705  98.2019  99.4383 100.6791 101.9240 103.1723 104.4237
 CONDUCTIVITY    112.9091 114.4649 116.0213 117.5776 119.1329 120.6865 122.2375 123.7853
 PRANDTL NUMBER    0.4853   0.4866   0.4879   0.4892   0.4905   0.4919   0.4933   0.4947

  WITH FROZEN REACTIONS

 Cp, KJ/(KG)(K)   19.1549  19.1691  19.1833  19.1975  19.2117  19.2260  19.2402  19.2544
 CONDUCTIVITY     15.7160  15.7785  15.8405  15.9021  15.9633  16.0239  16.0841  16.1437
 PRANDTL NUMBER    0.6975   0.6978   0.6980   0.6983   0.6985   0.6988   0.6991   0.6994

 MOLE FRACTIONS

 *H               0.25984  0.26493  0.27007  0.27526  0.28049  0.28577  0.29110  0.29648
 *H2              0.74016  0.73507  0.72993  0.72474  0.71951  0.71423  0.70890  0.70352

  * THERMODYNAMIC PROPERTIES FITTED TO 20000.K

 NOTE. WEIGHT FRACTION OF FUEL IN TOTAL FUELS AND OF OXIDANT IN TOTAL OXIDANTS









               THERMODYNAMIC EQUILIBRIUM PROPERTIES AT ASSIGNED

                           TEMPERATURE AND PRESSURE

 CASE =                

             REACTANT                    WT FRACTION      ENERGY      TEMP
                                          (SEE NOTE)     KJ/KG-MOL      K  
             H2                           1.0000000         0.000      0.000

 O/F=    0.00000  %FUEL=100.000000  R,EQ.RATIO= 0.000000  PHI,EQ.RATIO= 0.000000

 THERMODYNAMIC PROPERTIES

 P, BAR            3.5000   3.5000   3.5000   3.5000   3.9000   3.9000   3.9000   3.9000
 T, K             3560.00  3570.00  3580.00  3590.00  3450.00  3460.00  3470.00  3480.00
 RHO, KG/CU M    2.0239-2 2.0117-2 1.9996-2 1.9874-2 2.4205-2 2.4070-2 2.3936-2 2.3801-2
 H, KJ/KG         95206.8  96269.9  97345.5  98433.7  82682.5  83572.8  84474.7  85388.3
 U, KJ/KG         77913.2  78871.7  79841.7  80823.1  66570.4  67370.4  68181.0  69002.4
 G, KJ/KG       -302078.1-303195.6-304316.0-305439.5-288227.0-289303.4-290382.4-291463.9
 S, KJ/(KG)(K)   111.5969 111.8951 112.1960 112.4995 107.5100 107.7677 108.0280 108.2909

 M, (1/n)           1.712    1.706    1.701    1.695    1.780    1.776    1.771    1.766
 (dLV/dLP)t      -1.07309 -1.07430 -1.07552 -1.07675 -1.05740 -1.05852 -1.05964 -1.06078
 (dLV/dLT)p        2.1402   2.1560   2.1718   2.1875   1.9232   1.9386   1.9540   1.9694
 Cp, KJ/(KG)(K)  105.6776 106.9335 108.1908 109.4489  88.4526  89.6105  90.7754  91.9468
 GAMMAs            1.1594   1.1595   1.1596   1.1597   1.1600   1.1599   1.1599   1.1599
 SON VEL,M/SEC     4477.7   4491.4   4505.3   4519.2   4323.1   4335.1   4347.3   4359.6

 TRANSPORT PROPERTIES (GASES ONLY)
   CONDUCTIVITY IN UNITS OF MILLIWATTS/(CM)(K)

 VISC,MILLIPOISE  0.58841  0.59037  0.59231  0.59424  0.56441  0.56648  0.56855  0.57062

  WITH EQUILIBRIUM REACTIONS

 Cp, KJ/(KG)(K)  105.6776 106.9335 108.1908 109.4489  88.4526  89.6105  90.7754  91.9468
 CONDUCTIVITY    125.3288 126.8673 128.3999 129.9258 104.1445 105.6535 107.1664 108.6827
 PRANDTL NUMBER    0.4961   0.4976   0.4991   0.5006   0.4794   0.4805   0.4816   0.4827

  WITH FROZEN REACTIONS

 Cp, KJ/(KG)(K)   19.2686  19.2829  19.2971  19.3113  19.0997  19.1137  19.1277  19.1416
 CONDUCTIVITY     16.2027  16.2611  16.3189  16.3761  15.4772  15.5413  15.6051  15.6687
 PRANDTL NUMBER    0.6997   0.7001   0.7004   0.7007   0.6965   0.6967   0.6969   0.6971

 MOLE FRACTIONS

 *H               0.30189  0.30735  0.31285  0.31840  0.23368  0.23844  0.24324  0.24810
 *H2              0.69811  0.69265  0.68715  0.68160  0.76632  0.76156  0.75676  0.75190

  * THERMODYNAMIC PROPERTIES FITTED TO 20000.K

 NOTE. WEIGHT FRACTION OF FUEL IN TOTAL FUELS AND OF OXIDANT IN TOTAL OXIDANTS









               THERMODYNAMIC EQUILIBRIUM PROPERTIES AT ASSIGNED

                           TEMPERATURE AND PRESSURE

 CASE =                

             REACTANT                    WT FRACTION      ENERGY      TEMP
                                          (SEE NOTE)     KJ/KG-MOL      K  
             H2                           1.0000000         0.000      0.000

 O/F=    0.00000  %FUEL=100.000000  R,EQ.RATIO= 0.000000  PHI,EQ.RATIO= 0.000000

 THERMODYNAMIC PROPERTIES

 P, BAR            3.9000   3.9000   3.9000   3.9000   3.9000   3.9000   3.9000   3.9000
 T, K             3490.00  3500.00  3510.00  3520.00  3530.00  3540.00  3550.00  3560.00
 RHO, KG/CU M    2.3666-2 2.3532-2 2.3397-2 2.3263-2 2.3129-2 2.2995-2 2.2861-2 2.2727-2
 H, KJ/KG         86313.7  87250.8  88199.8  89160.8  90133.7  91118.6  92115.6  93124.6
 U, KJ/KG         69834.5  70677.4  71531.2  72395.9  73271.6  74158.2  75055.8  75964.4
 G, KJ/KG       -292548.2-293635.1-294724.7-295817.0-296912.1-298009.9-299110.5-300214.0
 S, KJ/(KG)(K)   108.5564 108.8245 109.0953 109.3687 109.6447 109.9233 110.2045 110.4884

 M, (1/n)           1.761    1.756    1.751    1.746    1.741    1.735    1.730    1.725
 (dLV/dLP)t      -1.06192 -1.06308 -1.06423 -1.06540 -1.06657 -1.06775 -1.06893 -1.07012
 (dLV/dLT)p        1.9849   2.0004   2.0160   2.0315   2.0471   2.0627   2.0783   2.0939
 Cp, KJ/(KG)(K)   93.1244  94.3080  95.4970  96.6912  97.8902  99.0934 100.3006 101.5112
 GAMMAs            1.1599   1.1599   1.1599   1.1600   1.1600   1.1600   1.1601   1.1602
 SON VEL,M/SEC     4371.9   4384.5   4397.1   4409.8   4422.7   4435.6   4448.7   4462.0

 TRANSPORT PROPERTIES (GASES ONLY)
   CONDUCTIVITY IN UNITS OF MILLIWATTS/(CM)(K)

 VISC,MILLIPOISE  0.57268  0.57473  0.57678  0.57882  0.58085  0.58287  0.58488  0.58688

  WITH EQUILIBRIUM REACTIONS

 Cp, KJ/(KG)(K)   93.1244  94.3079  95.4970  96.6912  97.8901  99.0934 100.3006 101.5112
 CONDUCTIVITY    110.2018 111.7229 113.2454 114.7686 116.2918 117.8142 119.3352 120.8540
 PRANDTL NUMBER    0.4839   0.4851   0.4864   0.4876   0.4889   0.4903   0.4916   0.4930

  WITH FROZEN REACTIONS

 Cp, KJ/(KG)(K)   19.1556  19.1696  19.1836  19.1976  19.2116  19.2256  19.2396  19.2537
 CONDUCTIVITY     15.7318  15.7947  15.8571  15.9191  15.9807  16.0419  16.1026  16.1628
 PRANDTL NUMBER    0.6973   0.6975   0.6978   0.6980   0.6983   0.6986   0.6988   0.6991

 MOLE FRACTIONS

 *H               0.25300  0.25796  0.26296  0.26801  0.27311  0.27826  0.28345  0.28868
 *H2              0.74700  0.74204  0.73704  0.73199  0.72689  0.72174  0.71655  0.71132

  * THERMODYNAMIC PROPERTIES FITTED TO 20000.K

 NOTE. WEIGHT FRACTION OF FUEL IN TOTAL FUELS AND OF OXIDANT IN TOTAL OXIDANTS









               THERMODYNAMIC EQUILIBRIUM PROPERTIES AT ASSIGNED

                           TEMPERATURE AND PRESSURE

 CASE =                

             REACTANT                    WT FRACTION      ENERGY      TEMP
                                          (SEE NOTE)     KJ/KG-MOL      K  
             H2                           1.0000000         0.000      0.000

 O/F=    0.00000  %FUEL=100.000000  R,EQ.RATIO= 0.000000  PHI,EQ.RATIO= 0.000000

 THERMODYNAMIC PROPERTIES

 P, BAR            3.9000   3.9000   3.9000   4.4000   4.4000   4.4000   4.4000   4.4000
 T, K             3570.00  3580.00  3590.00  3450.00  3460.00  3470.00  3480.00  3490.00
 RHO, KG/CU M    2.2593-2 2.2460-2 2.2327-2 2.7494-2 2.7344-2 2.7195-2 2.7045-2 2.6896-2
 H, KJ/KG         94145.8  95179.1  96224.6  80938.5  81789.8  82652.1  83525.6  84410.2
 U, KJ/KG         76884.2  77815.0  78756.8  64934.8  65698.5  66472.4  67256.4  68050.8
 G, KJ/KG       -301320.3-302429.5-303541.6-286290.0-287355.7-288423.8-289494.5-290567.6
 S, KJ/(KG)(K)   110.7748 111.0639 111.3555 106.4431 106.6894 106.9383 107.1897 107.4435

 M, (1/n)           1.720    1.714    1.709    1.792    1.788    1.783    1.778    1.774
 (dLV/dLP)t      -1.07131 -1.07250 -1.07370 -1.05457 -1.05565 -1.05673 -1.05783 -1.05894
 (dLV/dLT)p        2.1094   2.1250   2.1405   1.8777   1.8925   1.9074   1.9224   1.9374
 Cp, KJ/(KG)(K)  102.7248 103.9409 105.1590  84.5752  85.6785  86.7890  87.9063  89.0304
 GAMMAs            1.1603   1.1604   1.1605   1.1612   1.1611   1.1611   1.1610   1.1610
 SON VEL,M/SEC     4475.3   4488.7   4502.3   4310.8   4322.5   4334.3   4346.2   4358.2

 TRANSPORT PROPERTIES (GASES ONLY)
   CONDUCTIVITY IN UNITS OF MILLIWATTS/(CM)(K)

 VISC,MILLIPOISE  0.58887  0.59085  0.59281  0.56250  0.56458  0.56665  0.56872  0.57079

  WITH EQUILIBRIUM REACTIONS

 Cp, KJ/(KG)(K)  102.7248 103.9409 105.1590  84.5752  85.6785  86.7890  87.9063  89.0304
 CONDUCTIVITY    122.3698 123.8818 125.3892  99.7156 101.1770 102.6437 104.1149 105.5902
 PRANDTL NUMBER    0.4943   0.4957   0.4972   0.4771   0.4781   0.4791   0.4802   0.4813

  WITH FROZEN REACTIONS

 Cp, KJ/(KG)(K)   19.2677  19.2817  19.2957  19.0863  19.1001  19.1138  19.1276  19.1414
 CONDUCTIVITY     16.2224  16.2815  16.3401  15.4211  15.4857  15.5500  15.6140  15.6778
 PRANDTL NUMBER    0.6994   0.6997   0.7000   0.6962   0.6964   0.6965   0.6967   0.6969

 MOLE FRACTIONS

 *H               0.29396  0.29929  0.30465  0.22172  0.22627  0.23087  0.23552  0.24022
 *H2              0.70604  0.70071  0.69535  0.77828  0.77373  0.76913  0.76448  0.75978

  * THERMODYNAMIC PROPERTIES FITTED TO 20000.K

 NOTE. WEIGHT FRACTION OF FUEL IN TOTAL FUELS AND OF OXIDANT IN TOTAL OXIDANTS









               THERMODYNAMIC EQUILIBRIUM PROPERTIES AT ASSIGNED

                           TEMPERATURE AND PRESSURE

 CASE =                

             REACTANT                    WT FRACTION      ENERGY      TEMP
                                          (SEE NOTE)     KJ/KG-MOL      K  
             H2                           1.0000000         0.000      0.000

 O/F=    0.00000  %FUEL=100.000000  R,EQ.RATIO= 0.000000  PHI,EQ.RATIO= 0.000000

 THERMODYNAMIC PROPERTIES

 P, BAR            4.4000   4.4000   4.4000   4.4000   4.4000   4.4000   4.4000   4.4000
 T, K             3500.00  3510.00  3520.00  3530.00  3540.00  3550.00  3560.00  3570.00
 RHO, KG/CU M    2.6746-2 2.6597-2 2.6448-2 2.6299-2 2.6151-2 2.6002-2 2.5853-2 2.5705-2
 H, KJ/KG         85306.2  86213.5  87132.2  88062.3  89003.9  89957.1  90921.9  91898.3
 U, KJ/KG         68855.4  69670.5  70495.9  71331.8  72178.3  73035.3  73902.9  74781.1
 G, KJ/KG       -291643.3-292721.6-293802.5-294886.0-295972.2-297061.0-298152.6-299246.9
 S, KJ/(KG)(K)   107.6999 107.9587 108.2201 108.4839 108.7503 109.0192 109.2906 109.5645

 M, (1/n)           1.769    1.764    1.759    1.754    1.749    1.744    1.739    1.734
 (dLV/dLP)t      -1.06005 -1.06117 -1.06230 -1.06344 -1.06458 -1.06573 -1.06689 -1.06805
 (dLV/dLT)p        1.9525   1.9676   1.9827   1.9978   2.0130   2.0282   2.0434   2.0587
 Cp, KJ/(KG)(K)   90.1608  91.2972  92.4393  93.5868  94.7393  95.8965  97.0579  98.2232
 GAMMAs            1.1610   1.1610   1.1610   1.1610   1.1611   1.1611   1.1612   1.1612
 SON VEL,M/SEC     4370.3   4382.5   4394.9   4407.3   4419.9   4432.6   4445.4   4458.3

 TRANSPORT PROPERTIES (GASES ONLY)
   CONDUCTIVITY IN UNITS OF MILLIWATTS/(CM)(K)

 VISC,MILLIPOISE  0.57285  0.57491  0.57696  0.57901  0.58105  0.58308  0.58510  0.58712

  WITH EQUILIBRIUM REACTIONS

 Cp, KJ/(KG)(K)   90.1608  91.2972  92.4393  93.5868  94.7393  95.8965  97.0579  98.2232
 CONDUCTIVITY    107.0690 108.5507 110.0346 111.5202 113.0067 114.4937 115.9802 117.4658
 PRANDTL NUMBER    0.4824   0.4835   0.4847   0.4859   0.4871   0.4884   0.4896   0.4909

  WITH FROZEN REACTIONS

 Cp, KJ/(KG)(K)   19.1551  19.1689  19.1827  19.1965  19.2103  19.2240  19.2378  19.2516
 CONDUCTIVITY     15.7413  15.8045  15.8674  15.9299  15.9920  16.0537  16.1149  16.1757
 PRANDTL NUMBER    0.6971   0.6973   0.6975   0.6977   0.6980   0.6982   0.6985   0.6988

 MOLE FRACTIONS

 *H               0.24497  0.24977  0.25462  0.25952  0.26446  0.26945  0.27449  0.27957
 *H2              0.75503  0.75023  0.74538  0.74048  0.73554  0.73055  0.72551  0.72043

  * THERMODYNAMIC PROPERTIES FITTED TO 20000.K

 NOTE. WEIGHT FRACTION OF FUEL IN TOTAL FUELS AND OF OXIDANT IN TOTAL OXIDANTS









               THERMODYNAMIC EQUILIBRIUM PROPERTIES AT ASSIGNED

                           TEMPERATURE AND PRESSURE

 CASE =                

             REACTANT                    WT FRACTION      ENERGY      TEMP
                                          (SEE NOTE)     KJ/KG-MOL      K  
             H2                           1.0000000         0.000      0.000

 O/F=    0.00000  %FUEL=100.000000  R,EQ.RATIO= 0.000000  PHI,EQ.RATIO= 0.000000

 THERMODYNAMIC PROPERTIES

 P, BAR            4.4000   4.4000   4.9000   4.9000   4.9000   4.9000   4.9000   4.9000
 T, K             3580.00  3590.00  3450.00  3460.00  3470.00  3480.00  3490.00  3500.00
 RHO, KG/CU M    2.5557-2 2.5409-2 3.0794-2 3.0630-2 3.0466-2 3.0302-2 3.0138-2 2.9975-2
 H, KJ/KG         92886.3  93886.1  79464.8  80282.9  81111.6  81950.9  82801.0  83661.9
 U, KJ/KG         75669.9  76569.5  63552.8  64285.6  65028.2  65780.5  66542.7  67314.8
 G, KJ/KG       -300343.9-301443.7-284572.5-285628.9-286687.6-287748.8-288812.3-289878.3
 S, KJ/(KG)(K)   109.8408 110.1197 105.5181 105.7549 105.9940 106.2355 106.4795 106.7258

 M, (1/n)           1.729    1.724    1.803    1.798    1.794    1.789    1.785    1.780
 (dLV/dLP)t      -1.06921 -1.07038 -1.05213 -1.05317 -1.05423 -1.05529 -1.05636 -1.05744
 (dLV/dLT)p        2.0739   2.0891   1.8385   1.8529   1.8673   1.8818   1.8964   1.9110
 Cp, KJ/(KG)(K)   99.3920 100.5638  81.2807  82.3362  83.3991  84.4691  85.5460  86.6295
 GAMMAs            1.1613   1.1614   1.1623   1.1623   1.1622   1.1621   1.1621   1.1621
 SON VEL,M/SEC     4471.4   4484.5   4300.6   4312.0   4323.4   4335.0   4346.7   4358.5

 TRANSPORT PROPERTIES (GASES ONLY)
   CONDUCTIVITY IN UNITS OF MILLIWATTS/(CM)(K)

 VISC,MILLIPOISE  0.58912  0.59111  0.56079  0.56286  0.56494  0.56701  0.56908  0.57115

  WITH EQUILIBRIUM REACTIONS

 Cp, KJ/(KG)(K)   99.3920 100.5638  81.2807  82.3362  83.3991  84.4691  85.5460  86.6295
 CONDUCTIVITY    118.9496 120.4310  95.8997  97.3175  98.7413 100.1707 101.6051 103.0441
 PRANDTL NUMBER    0.4923   0.4936   0.4753   0.4762   0.4772   0.4781   0.4791   0.4802

  WITH FROZEN REACTIONS

 Cp, KJ/(KG)(K)   19.2654  19.2792  19.0750  19.0886  19.1022  19.1157  19.1293  19.1429
 CONDUCTIVITY     16.2361  16.2959  15.3702  15.4350  15.4996  15.5640  15.6282  15.6922
 PRANDTL NUMBER    0.6990   0.6993   0.6960   0.6961   0.6962   0.6964   0.6966   0.6967

 MOLE FRACTIONS

 *H               0.28469  0.28986  0.21148  0.21585  0.22027  0.22475  0.22927  0.23384
 *H2              0.71531  0.71014  0.78852  0.78415  0.77973  0.77525  0.77073  0.76616

  * THERMODYNAMIC PROPERTIES FITTED TO 20000.K

 NOTE. WEIGHT FRACTION OF FUEL IN TOTAL FUELS AND OF OXIDANT IN TOTAL OXIDANTS









               THERMODYNAMIC EQUILIBRIUM PROPERTIES AT ASSIGNED

                           TEMPERATURE AND PRESSURE

 CASE =                

             REACTANT                    WT FRACTION      ENERGY      TEMP
                                          (SEE NOTE)     KJ/KG-MOL      K  
             H2                           1.0000000         0.000      0.000

 O/F=    0.00000  %FUEL=100.000000  R,EQ.RATIO= 0.000000  PHI,EQ.RATIO= 0.000000

 THERMODYNAMIC PROPERTIES

 P, BAR            4.9000   4.9000   4.9000   4.9000   4.9000   4.9000   4.9000   4.9000
 T, K             3510.00  3520.00  3530.00  3540.00  3550.00  3560.00  3570.00  3580.00
 RHO, KG/CU M    2.9811-2 2.9648-2 2.9484-2 2.9321-2 2.9158-2 2.8995-2 2.8832-2 2.8670-2
 H, KJ/KG         84533.6  85416.3  86309.9  87214.6  88130.4  89057.4  89995.5  90944.9
 U, KJ/KG         68096.8  68888.8  69690.9  70503.1  71325.4  72157.9  73000.6  73853.6
 G, KJ/KG       -290946.8-292017.8-293091.4-294167.4-295246.1-296327.3-297411.2-298497.7
 S, KJ/(KG)(K)   106.9745 107.2256 107.4791 107.7350 107.9934 108.2541 108.5173 108.7828

 M, (1/n)           1.776    1.771    1.766    1.761    1.756    1.752    1.747    1.742
 (dLV/dLP)t      -1.05852 -1.05962 -1.06072 -1.06183 -1.06295 -1.06408 -1.06521 -1.06635
 (dLV/dLT)p        1.9257   1.9404   1.9552   1.9700   1.9848   1.9996   2.0145   2.0294
 Cp, KJ/(KG)(K)   87.7193  88.8153  89.9170  91.0242  92.1366  93.2538  94.3755  95.5014
 GAMMAs            1.1620   1.1620   1.1620   1.1620   1.1620   1.1621   1.1621   1.1622
 SON VEL,M/SEC     4370.4   4382.4   4394.5   4406.7   4419.1   4431.5   4444.1   4456.8

 TRANSPORT PROPERTIES (GASES ONLY)
   CONDUCTIVITY IN UNITS OF MILLIWATTS/(CM)(K)

 VISC,MILLIPOISE  0.57321  0.57527  0.57732  0.57937  0.58142  0.58345  0.58548  0.58751

  WITH EQUILIBRIUM REACTIONS

 Cp, KJ/(KG)(K)   87.7193  88.8153  89.9170  91.0242  92.1366  93.2538  94.3755  95.5014
 CONDUCTIVITY    104.4871 105.9335 107.3829 108.8345 110.2879 111.7424 113.1973 114.6522
 PRANDTL NUMBER    0.4812   0.4823   0.4834   0.4846   0.4857   0.4869   0.4881   0.4894

  WITH FROZEN REACTIONS

 Cp, KJ/(KG)(K)   19.1565  19.1701  19.1836  19.1972  19.2108  19.2244  19.2380  19.2516
 CONDUCTIVITY     15.7559  15.8193  15.8824  15.9452  16.0076  16.0697  16.1314  16.1927
 PRANDTL NUMBER    0.6969   0.6971   0.6973   0.6975   0.6978   0.6980   0.6982   0.6985

 MOLE FRACTIONS

 *H               0.23846  0.24313  0.24785  0.25262  0.25743  0.26228  0.26719  0.27213
 *H2              0.76154  0.75687  0.75215  0.74738  0.74257  0.73772  0.73281  0.72787

  * THERMODYNAMIC PROPERTIES FITTED TO 20000.K

 NOTE. WEIGHT FRACTION OF FUEL IN TOTAL FUELS AND OF OXIDANT IN TOTAL OXIDANTS









               THERMODYNAMIC EQUILIBRIUM PROPERTIES AT ASSIGNED

                           TEMPERATURE AND PRESSURE

 CASE =                

             REACTANT                    WT FRACTION      ENERGY      TEMP
                                          (SEE NOTE)     KJ/KG-MOL      K  
             H2                           1.0000000         0.000      0.000

 O/F=    0.00000  %FUEL=100.000000  R,EQ.RATIO= 0.000000  PHI,EQ.RATIO= 0.000000

 THERMODYNAMIC PROPERTIES

 P, BAR            4.9000   5.4000   5.4000   5.4000   5.4000   5.4000   5.4000   5.4000
 T, K             3590.00  3450.00  3460.00  3470.00  3480.00  3490.00  3500.00  3510.00
 RHO, KG/CU M    2.8507-2 3.4105-2 3.3927-2 3.3749-2 3.3571-2 3.3392-2 3.3215-2 3.3037-2
 H, KJ/KG         91905.6  78198.2  78987.6  79787.2  80597.1  81417.2  82247.8  83088.7
 U, KJ/KG         74716.9  62364.9  63071.1  63786.6  64511.5  65245.9  65989.8  66743.3
 G, KJ/KG       -299586.8-283030.3-284078.5-285128.9-286181.7-287236.9-288294.4-289354.3
 S, KJ/(KG)(K)   109.0508 104.7039 104.9324 105.1632 105.3962 105.6315 105.8692 106.1091

 M, (1/n)           1.737    1.812    1.807    1.803    1.799    1.794    1.790    1.785
 (dLV/dLP)t      -1.06749 -1.05000 -1.05101 -1.05203 -1.05306 -1.05410 -1.05515 -1.05620
 (dLV/dLT)p        2.0443   1.8043   1.8182   1.8322   1.8463   1.8605   1.8747   1.8890
 Cp, KJ/(KG)(K)   96.6310  78.4364  79.4498  80.4706  81.4986  82.5337  83.5755  84.6239
 GAMMAs            1.1622   1.1634   1.1633   1.1632   1.1632   1.1631   1.1630   1.1630
 SON VEL,M/SEC     4469.6   4292.0   4303.0   4314.2   4325.5   4336.9   4348.4   4360.0

 TRANSPORT PROPERTIES (GASES ONLY)
   CONDUCTIVITY IN UNITS OF MILLIWATTS/(CM)(K)

 VISC,MILLIPOISE  0.58952  0.55925  0.56132  0.56338  0.56545  0.56752  0.56959  0.57165

  WITH EQUILIBRIUM REACTIONS

 Cp, KJ/(KG)(K)   96.6310  78.4364  79.4498  80.4706  81.4986  82.5337  83.5755  84.6239
 CONDUCTIVITY    116.1062  92.5659  93.9436  95.3279  96.7186  98.1150  99.5168 100.9235
 PRANDTL NUMBER    0.4906   0.4739   0.4747   0.4756   0.4765   0.4774   0.4783   0.4793

  WITH FROZEN REACTIONS

 Cp, KJ/(KG)(K)   19.2652  19.0653  19.0787  19.0921  19.1055  19.1189  19.1324  19.1458
 CONDUCTIVITY     16.2535  15.3237  15.3886  15.4534  15.5180  15.5825  15.6467  15.7108
 PRANDTL NUMBER    0.6988   0.6958   0.6959   0.6960   0.6962   0.6963   0.6965   0.6966

 MOLE FRACTIONS

 *H               0.27712  0.20258  0.20680  0.21106  0.21538  0.21974  0.22416  0.22862
 *H2              0.72288  0.79742  0.79320  0.78894  0.78462  0.78026  0.77584  0.77138

  * THERMODYNAMIC PROPERTIES FITTED TO 20000.K

 NOTE. WEIGHT FRACTION OF FUEL IN TOTAL FUELS AND OF OXIDANT IN TOTAL OXIDANTS









               THERMODYNAMIC EQUILIBRIUM PROPERTIES AT ASSIGNED

                           TEMPERATURE AND PRESSURE

 CASE =                

             REACTANT                    WT FRACTION      ENERGY      TEMP
                                          (SEE NOTE)     KJ/KG-MOL      K  
             H2                           1.0000000         0.000      0.000

 O/F=    0.00000  %FUEL=100.000000  R,EQ.RATIO= 0.000000  PHI,EQ.RATIO= 0.000000

 THERMODYNAMIC PROPERTIES

 P, BAR            5.4000   5.4000   5.4000   5.4000   5.4000   5.4000   5.4000   5.4000
 T, K             3520.00  3530.00  3540.00  3550.00  3560.00  3570.00  3580.00  3590.00
 RHO, KG/CU M    3.2859-2 3.2681-2 3.2504-2 3.2327-2 3.2149-2 3.1972-2 3.1795-2 3.1619-2
 H, KJ/KG         83940.3  84802.3  85675.1  86558.5  87452.6  88357.6  89273.4  90200.1
 U, KJ/KG         67506.4  68279.1  69061.6  69853.9  70656.0  71468.0  72289.9  73121.7
 G, KJ/KG       -290416.6-291481.3-292548.5-293618.2-294690.3-295765.0-296842.3-297922.1
 S, KJ/(KG)(K)   106.3514 106.5959 106.8428 107.0920 107.3435 107.5974 107.8535 108.1120

 M, (1/n)           1.781    1.776    1.772    1.767    1.762    1.757    1.753    1.748
 (dLV/dLP)t      -1.05727 -1.05834 -1.05942 -1.06051 -1.06161 -1.06271 -1.06382 -1.06494
 (dLV/dLT)p        1.9033   1.9177   1.9321   1.9466   1.9611   1.9756   1.9902   2.0048
 Cp, KJ/(KG)(K)   85.6787  86.7394  87.8060  88.8781  89.9555  91.0378  92.1247  93.2159
 GAMMAs            1.1630   1.1629   1.1629   1.1629   1.1629   1.1630   1.1630   1.1630
 SON VEL,M/SEC     4371.7   4383.6   4395.5   4407.5   4419.7   4431.9   4444.3   4456.8

 TRANSPORT PROPERTIES (GASES ONLY)
   CONDUCTIVITY IN UNITS OF MILLIWATTS/(CM)(K)

 VISC,MILLIPOISE  0.57372  0.57578  0.57783  0.57988  0.58193  0.58397  0.58600  0.58803

  WITH EQUILIBRIUM REACTIONS

 Cp, KJ/(KG)(K)   85.6786  86.7394  87.8060  88.8781  89.9555  91.0378  92.1247  93.2159
 CONDUCTIVITY    102.3345 103.7494 105.1677 106.5887 108.0120 109.4369 110.8630 112.2895
 PRANDTL NUMBER    0.4803   0.4814   0.4824   0.4835   0.4846   0.4858   0.4870   0.4881

  WITH FROZEN REACTIONS

 Cp, KJ/(KG)(K)   19.1592  19.1726  19.1860  19.1995  19.2129  19.2263  19.2397  19.2532
 CONDUCTIVITY     15.7746  15.8382  15.9015  15.9645  16.0271  16.0895  16.1515  16.2131
 PRANDTL NUMBER    0.6968   0.6970   0.6972   0.6974   0.6976   0.6978   0.6981   0.6983

 MOLE FRACTIONS

 *H               0.23313  0.23769  0.24229  0.24694  0.25164  0.25638  0.26117  0.26600
 *H2              0.76687  0.76231  0.75771  0.75306  0.74836  0.74362  0.73883  0.73400

  * THERMODYNAMIC PROPERTIES FITTED TO 20000.K

 NOTE. WEIGHT FRACTION OF FUEL IN TOTAL FUELS AND OF OXIDANT IN TOTAL OXIDANTS









               THERMODYNAMIC EQUILIBRIUM PROPERTIES AT ASSIGNED

                           TEMPERATURE AND PRESSURE

 CASE =                

             REACTANT                    WT FRACTION      ENERGY      TEMP
                                          (SEE NOTE)     KJ/KG-MOL      K  
             H2                           1.0000000         0.000      0.000

 O/F=    0.00000  %FUEL=100.000000  R,EQ.RATIO= 0.000000  PHI,EQ.RATIO= 0.000000

 THERMODYNAMIC PROPERTIES

 P, BAR            6.0000   6.0000   6.0000   6.0000   6.0000   6.0000   6.0000   6.0000
 T, K             3450.00  3460.00  3470.00  3480.00  3490.00  3500.00  3510.00  3520.00
 RHO, KG/CU M    3.8090-2 3.7895-2 3.7700-2 3.7505-2 3.7310-2 3.7115-2 3.6921-2 3.6726-2
 H, KJ/KG         76890.0  77649.7  78419.1  79198.3  79987.4  80786.5  81595.5  82414.7
 U, KJ/KG         61138.0  61816.5  62504.0  63200.5  63906.0  64620.7  65344.5  66077.5
 G, KJ/KG       -281366.4-282405.9-283447.6-284491.6-285537.8-286586.3-287637.1-288690.2
 S, KJ/(KG)(K)   103.8424 104.0623 104.2844 104.5086 104.7350 104.9637 105.1945 105.4275

 M, (1/n)           1.821    1.817    1.813    1.809    1.804    1.800    1.796    1.791
 (dLV/dLP)t      -1.04777 -1.04875 -1.04973 -1.05072 -1.05173 -1.05274 -1.05376 -1.05479
 (dLV/dLT)p        1.7684   1.7819   1.7954   1.8090   1.8227   1.8365   1.8504   1.8643
 Cp, KJ/(KG)(K)   75.4872  76.4560  77.4323  78.4158  79.4065  80.4040  81.4083  82.4190
 GAMMAs            1.1647   1.1645   1.1644   1.1643   1.1642   1.1642   1.1641   1.1640
 SON VEL,M/SEC     4283.2   4294.0   4304.9   4315.9   4327.0   4338.2   4349.5   4360.9

 TRANSPORT PROPERTIES (GASES ONLY)
   CONDUCTIVITY IN UNITS OF MILLIWATTS/(CM)(K)

 VISC,MILLIPOISE  0.55758  0.55964  0.56170  0.56376  0.56583  0.56789  0.56996  0.57202

  WITH EQUILIBRIUM REACTIONS

 Cp, KJ/(KG)(K)   75.4872  76.4560  77.4323  78.4158  79.4065  80.4040  81.4083  82.4190
 CONDUCTIVITY     89.0703  90.4040  91.7450  93.0930  94.4474  95.8079  97.1740  98.5454
 PRANDTL NUMBER    0.4725   0.4733   0.4741   0.4749   0.4757   0.4766   0.4775   0.4784

  WITH FROZEN REACTIONS

 Cp, KJ/(KG)(K)   19.0553  19.0685  19.0818  19.0950  19.1082  19.1215  19.1347  19.1480
 CONDUCTIVITY     15.2730  15.3379  15.4028  15.4675  15.5322  15.5966  15.6610  15.7251
 PRANDTL NUMBER    0.6957   0.6958   0.6959   0.6960   0.6961   0.6962   0.6964   0.6965

 MOLE FRACTIONS

 *H               0.19330  0.19735  0.20145  0.20560  0.20979  0.21404  0.21833  0.22267
 *H2              0.80670  0.80265  0.79855  0.79440  0.79021  0.78596  0.78167  0.77733

  * THERMODYNAMIC PROPERTIES FITTED TO 20000.K

 NOTE. WEIGHT FRACTION OF FUEL IN TOTAL FUELS AND OF OXIDANT IN TOTAL OXIDANTS









               THERMODYNAMIC EQUILIBRIUM PROPERTIES AT ASSIGNED

                           TEMPERATURE AND PRESSURE

 CASE =                

             REACTANT                    WT FRACTION      ENERGY      TEMP
                                          (SEE NOTE)     KJ/KG-MOL      K  
             H2                           1.0000000         0.000      0.000

 O/F=    0.00000  %FUEL=100.000000  R,EQ.RATIO= 0.000000  PHI,EQ.RATIO= 0.000000

 THERMODYNAMIC PROPERTIES

 P, BAR            6.0000   6.0000   6.0000   6.0000   6.0000   6.0000   6.0000   6.7000
 T, K             3530.00  3540.00  3550.00  3560.00  3570.00  3580.00  3590.00  3450.00
 RHO, KG/CU M    3.6532-2 3.6337-2 3.6143-2 3.5949-2 3.5755-2 3.5562-2 3.5368-2 4.2754-2
 H, KJ/KG         83243.9  84083.4  84933.1  85793.2  86663.6  87544.5  88435.8  75589.3
 U, KJ/KG         66819.8  67571.5  68332.5  69103.0  69882.9  70672.3  71471.4  59918.2
 G, KJ/KG       -289745.7-290803.5-291863.7-292926.3-293991.3-295058.8-296128.8-279632.7
 S, KJ/(KG)(K)   105.6628 105.9003 106.1400 106.3819 106.6260 106.8724 107.1210 102.9629

 M, (1/n)           1.787    1.783    1.778    1.773    1.769    1.764    1.760    1.830
 (dLV/dLP)t      -1.05583 -1.05688 -1.05794 -1.05900 -1.06007 -1.06115 -1.06224 -1.04552
 (dLV/dLT)p        1.8782   1.8923   1.9063   1.9205   1.9346   1.9488   1.9630   1.7322
 Cp, KJ/(KG)(K)   83.4360  84.4591  85.4879  86.5224  87.5621  88.6068  89.6563  72.5439
 GAMMAs            1.1640   1.1640   1.1639   1.1639   1.1639   1.1639   1.1640   1.1660
 SON VEL,M/SEC     4372.4   4384.0   4395.7   4407.5   4419.5   4431.5   4443.6   4274.6

 TRANSPORT PROPERTIES (GASES ONLY)
   CONDUCTIVITY IN UNITS OF MILLIWATTS/(CM)(K)

 VISC,MILLIPOISE  0.57408  0.57614  0.57819  0.58024  0.58229  0.58433  0.58637  0.55584

  WITH EQUILIBRIUM REACTIONS

 Cp, KJ/(KG)(K)   83.4360  84.4591  85.4879  86.5224  87.5621  88.6068  89.6563  72.5439
 CONDUCTIVITY     99.9215 101.3019 102.6861 104.0736 105.4639 106.8565 108.2509  85.5420
 PRANDTL NUMBER    0.4794   0.4803   0.4814   0.4824   0.4835   0.4845   0.4856   0.4714

  WITH FROZEN REACTIONS

 Cp, KJ/(KG)(K)   19.1612  19.1745  19.1877  19.2010  19.2142  19.2275  19.2407  19.0453
 CONDUCTIVITY     15.7890  15.8527  15.9162  15.9794  16.0423  16.1049  16.1672  15.2197
 PRANDTL NUMBER    0.6967   0.6969   0.6970   0.6972   0.6974   0.6976   0.6978   0.6956

 MOLE FRACTIONS

 *H               0.22706  0.23149  0.23597  0.24050  0.24507  0.24969  0.25435  0.18398
 *H2              0.77294  0.76851  0.76403  0.75950  0.75493  0.75031  0.74565  0.81602

  * THERMODYNAMIC PROPERTIES FITTED TO 20000.K

 NOTE. WEIGHT FRACTION OF FUEL IN TOTAL FUELS AND OF OXIDANT IN TOTAL OXIDANTS









               THERMODYNAMIC EQUILIBRIUM PROPERTIES AT ASSIGNED

                           TEMPERATURE AND PRESSURE

 CASE =                

             REACTANT                    WT FRACTION      ENERGY      TEMP
                                          (SEE NOTE)     KJ/KG-MOL      K  
             H2                           1.0000000         0.000      0.000

 O/F=    0.00000  %FUEL=100.000000  R,EQ.RATIO= 0.000000  PHI,EQ.RATIO= 0.000000

 THERMODYNAMIC PROPERTIES

 P, BAR            6.7000   6.7000   6.7000   6.7000   6.7000   6.7000   6.7000   6.7000
 T, K             3460.00  3470.00  3480.00  3490.00  3500.00  3510.00  3520.00  3530.00
 RHO, KG/CU M    4.2539-2 4.2325-2 4.2110-2 4.1896-2 4.1682-2 4.1468-2 4.1254-2 4.1040-2
 H, KJ/KG         76319.4  77058.7  77807.4  78565.4  79333.0  80110.2  80896.9  81693.4
 U, KJ/KG         60569.2  61228.7  61896.7  62573.4  63258.8  63953.0  64656.0  65367.8
 G, KJ/KG       -280663.4-281696.2-282731.1-283768.2-284807.5-285849.1-286892.8-287938.8
 S, KJ/(KG)(K)   103.1742 103.3876 103.6030 103.8205 104.0402 104.2619 104.4857 104.7117

 M, (1/n)           1.827    1.823    1.819    1.815    1.810    1.806    1.802    1.798
 (dLV/dLP)t      -1.04646 -1.04741 -1.04836 -1.04933 -1.05031 -1.05129 -1.05229 -1.05329
 (dLV/dLT)p        1.7452   1.7583   1.7714   1.7846   1.7979   1.8113   1.8248   1.8383
 Cp, KJ/(KG)(K)   73.4675  74.3985  75.3367  76.2821  77.2344  78.1934  79.1591  80.1311
 GAMMAs            1.1658   1.1657   1.1656   1.1655   1.1654   1.1653   1.1652   1.1652
 SON VEL,M/SEC     4285.1   4295.7   4306.4   4317.2   4328.1   4339.1   4350.2   4361.4

 TRANSPORT PROPERTIES (GASES ONLY)
   CONDUCTIVITY IN UNITS OF MILLIWATTS/(CM)(K)

 VISC,MILLIPOISE  0.55789  0.55994  0.56200  0.56406  0.56611  0.56817  0.57023  0.57229

  WITH EQUILIBRIUM REACTIONS

 Cp, KJ/(KG)(K)   73.4675  74.3985  75.3367  76.2821  77.2344  78.1934  79.1591  80.1311
 CONDUCTIVITY     86.8295  88.1248  89.4276  90.7374  92.0539  93.3767  94.7055  96.0398
 PRANDTL NUMBER    0.4720   0.4727   0.4734   0.4742   0.4750   0.4758   0.4766   0.4775

  WITH FROZEN REACTIONS

 Cp, KJ/(KG)(K)   19.0584  19.0714  19.0845  19.0976  19.1106  19.1237  19.1368  19.1499
 CONDUCTIVITY     15.2845  15.3494  15.4142  15.4789  15.5435  15.6080  15.6723  15.7365
 PRANDTL NUMBER    0.6956   0.6957   0.6958   0.6959   0.6960   0.6962   0.6963   0.6964

 MOLE FRACTIONS

 *H               0.18786  0.19179  0.19576  0.19978  0.20386  0.20797  0.21214  0.21635
 *H2              0.81214  0.80821  0.80424  0.80022  0.79614  0.79203  0.78786  0.78365

  * THERMODYNAMIC PROPERTIES FITTED TO 20000.K

 NOTE. WEIGHT FRACTION OF FUEL IN TOTAL FUELS AND OF OXIDANT IN TOTAL OXIDANTS









               THERMODYNAMIC EQUILIBRIUM PROPERTIES AT ASSIGNED

                           TEMPERATURE AND PRESSURE

 CASE =                

             REACTANT                    WT FRACTION      ENERGY      TEMP
                                          (SEE NOTE)     KJ/KG-MOL      K  
             H2                           1.0000000         0.000      0.000

 O/F=    0.00000  %FUEL=100.000000  R,EQ.RATIO= 0.000000  PHI,EQ.RATIO= 0.000000

 THERMODYNAMIC PROPERTIES

 P, BAR            6.7000   6.7000   6.7000   6.7000   6.7000   6.7000   7.4000   7.4000
 T, K             3540.00  3550.00  3560.00  3570.00  3580.00  3590.00  3450.00  3460.00
 RHO, KG/CU M    4.0826-2 4.0613-2 4.0400-2 4.0186-2 3.9973-2 3.9761-2 4.7430-2 4.7196-2
 H, KJ/KG         82499.6  83315.6  84141.4  84977.3  85823.0  86678.9  74476.1  75180.7
 U, KJ/KG         66088.6  66818.3  67557.1  68304.9  69061.9  69828.0  58874.1  59501.4
 G, KJ/KG       -288987.0-290037.6-291090.4-292145.6-293203.2-294263.1-278078.9-279101.8
 S, KJ/(KG)(K)   104.9397 105.1699 105.4022 105.6367 105.8732 106.1120 102.1899 102.3938

 M, (1/n)           1.794    1.789    1.785    1.780    1.776    1.771    1.839    1.835
 (dLV/dLP)t      -1.05430 -1.05533 -1.05636 -1.05739 -1.05844 -1.05949 -1.04357 -1.04448
 (dLV/dLT)p        1.8518   1.8655   1.8792   1.8929   1.9067   1.9205   1.7008   1.7134
 Cp, KJ/(KG)(K)   81.1094  82.0936  83.0837  84.0793  85.0803  86.0863  70.0164  70.9005
 GAMMAs            1.1651   1.1651   1.1650   1.1650   1.1650   1.1650   1.1672   1.1671
 SON VEL,M/SEC     4372.7   4384.1   4395.6   4407.2   4418.9   4430.7   4267.5   4277.7

 TRANSPORT PROPERTIES (GASES ONLY)
   CONDUCTIVITY IN UNITS OF MILLIWATTS/(CM)(K)

 VISC,MILLIPOISE  0.57435  0.57640  0.57845  0.58051  0.58255  0.58460  0.55430  0.55633

  WITH EQUILIBRIUM REACTIONS

 Cp, KJ/(KG)(K)   81.1094  82.0936  83.0837  84.0793  85.0803  86.0863  70.0164  70.9005
 CONDUCTIVITY     97.3793  98.7234 100.0718 101.4240 102.7795 104.1378  82.4802  83.7262
 PRANDTL NUMBER    0.4784   0.4793   0.4803   0.4812   0.4822   0.4833   0.4705   0.4711

  WITH FROZEN REACTIONS

 Cp, KJ/(KG)(K)   19.1629  19.1760  19.1891  19.2022  19.2152  19.2283  19.0368  19.0497
 CONDUCTIVITY     15.8005  15.8643  15.9280  15.9914  16.0545  16.1174  15.1717  15.2365
 PRANDTL NUMBER    0.6966   0.6967   0.6969   0.6971   0.6972   0.6974   0.6955   0.6956

 MOLE FRACTIONS

 *H               0.22061  0.22492  0.22927  0.23366  0.23810  0.24259  0.17592  0.17965
 *H2              0.77939  0.77508  0.77073  0.76634  0.76190  0.75741  0.82408  0.82035

  * THERMODYNAMIC PROPERTIES FITTED TO 20000.K

 NOTE. WEIGHT FRACTION OF FUEL IN TOTAL FUELS AND OF OXIDANT IN TOTAL OXIDANTS









               THERMODYNAMIC EQUILIBRIUM PROPERTIES AT ASSIGNED

                           TEMPERATURE AND PRESSURE

 CASE =                

             REACTANT                    WT FRACTION      ENERGY      TEMP
                                          (SEE NOTE)     KJ/KG-MOL      K  
             H2                           1.0000000         0.000      0.000

 O/F=    0.00000  %FUEL=100.000000  R,EQ.RATIO= 0.000000  PHI,EQ.RATIO= 0.000000

 THERMODYNAMIC PROPERTIES

 P, BAR            7.4000   7.4000   7.4000   7.4000   7.4000   7.4000   7.4000   7.4000
 T, K             3470.00  3480.00  3490.00  3500.00  3510.00  3520.00  3530.00  3540.00
 RHO, KG/CU M    4.6963-2 4.6729-2 4.6496-2 4.6262-2 4.6029-2 4.5796-2 4.5563-2 4.5331-2
 H, KJ/KG         75894.1  76616.5  77347.9  78088.5  78838.1  79597.1  80365.3  81142.8
 U, KJ/KG         60136.9  60780.6  61432.5  62092.8  62761.4  63438.5  64124.1  64818.3
 G, KJ/KG       -280126.8-281153.8-282182.9-283214.1-284247.5-285283.0-286320.7-287360.6
 S, KJ/(KG)(K)   102.5997 102.8076 103.0174 103.2293 103.4432 103.6591 103.8770 104.0970

 M, (1/n)           1.831    1.827    1.823    1.819    1.815    1.811    1.807    1.803
 (dLV/dLP)t      -1.04539 -1.04631 -1.04725 -1.04819 -1.04915 -1.05011 -1.05108 -1.05206
 (dLV/dLT)p        1.7260   1.7387   1.7515   1.7644   1.7773   1.7904   1.8035   1.8166
 Cp, KJ/(KG)(K)   71.7920  72.6906  73.5963  74.5090  75.4284  76.3544  77.2869  78.2256
 GAMMAs            1.1669   1.1668   1.1666   1.1665   1.1664   1.1663   1.1662   1.1662
 SON VEL,M/SEC     4288.0   4298.5   4309.0   4319.7   4330.4   4341.2   4352.1   4363.1

 TRANSPORT PROPERTIES (GASES ONLY)
   CONDUCTIVITY IN UNITS OF MILLIWATTS/(CM)(K)

 VISC,MILLIPOISE  0.55837  0.56042  0.56247  0.56452  0.56657  0.56862  0.57067  0.57273

  WITH EQUILIBRIUM REACTIONS

 Cp, KJ/(KG)(K)   71.7920  72.6906  73.5963  74.5090  75.4284  76.3544  77.2869  78.2256
 CONDUCTIVITY     84.9802  86.2421  87.5115  88.7881  90.0714  91.3613  92.6573  93.9590
 PRANDTL NUMBER    0.4717   0.4724   0.4730   0.4737   0.4745   0.4752   0.4760   0.4768

  WITH FROZEN REACTIONS

 Cp, KJ/(KG)(K)   19.0626  19.0755  19.0885  19.1014  19.1143  19.1272  19.1401  19.1531
 CONDUCTIVITY     15.3012  15.3659  15.4306  15.4952  15.5597  15.6242  15.6885  15.7527
 PRANDTL NUMBER    0.6956   0.6957   0.6958   0.6959   0.6960   0.6961   0.6962   0.6964

 MOLE FRACTIONS

 *H               0.18343  0.18725  0.19113  0.19504  0.19901  0.20302  0.20708  0.21118
 *H2              0.81657  0.81275  0.80887  0.80496  0.80099  0.79698  0.79292  0.78882

  * THERMODYNAMIC PROPERTIES FITTED TO 20000.K

 NOTE. WEIGHT FRACTION OF FUEL IN TOTAL FUELS AND OF OXIDANT IN TOTAL OXIDANTS









               THERMODYNAMIC EQUILIBRIUM PROPERTIES AT ASSIGNED

                           TEMPERATURE AND PRESSURE

 CASE =                

             REACTANT                    WT FRACTION      ENERGY      TEMP
                                          (SEE NOTE)     KJ/KG-MOL      K  
             H2                           1.0000000         0.000      0.000

 O/F=    0.00000  %FUEL=100.000000  R,EQ.RATIO= 0.000000  PHI,EQ.RATIO= 0.000000

 THERMODYNAMIC PROPERTIES

 P, BAR            7.4000   7.4000   7.4000   7.4000   7.4000   8.2500   8.2500   8.2500
 T, K             3550.00  3560.00  3570.00  3580.00  3590.00  3450.00  3460.00  3470.00
 RHO, KG/CU M    4.5098-2 4.4866-2 4.4634-2 4.4402-2 4.4170-2 5.3123-2 5.2866-2 5.2610-2
 H, KJ/KG         81929.8  82726.2  83532.2  84347.8  85173.0  73318.0  73996.0  74682.5
 U, KJ/KG         65521.1  66232.6  66952.8  67681.7  68419.5  57788.1  58390.7  59001.0
 G, KJ/KG       -288402.6-289447.0-290493.5-291542.3-292593.5-276386.4-277401.0-278417.6
 S, KJ/(KG)(K)   104.3190 104.5430 104.7691 104.9973 105.2274 101.3636 101.5598 101.7579

 M, (1/n)           1.799    1.795    1.790    1.786    1.782    1.847    1.843    1.840
 (dLV/dLP)t      -1.05305 -1.05405 -1.05505 -1.05607 -1.05709 -1.04152 -1.04239 -1.04326
 (dLV/dLT)p        1.8299   1.8432   1.8565   1.8699   1.8834   1.6678   1.6798   1.6920
 Cp, KJ/(KG)(K)   79.1705  80.1213  81.0779  82.0400  83.0074  67.3794  68.2218  69.0714
 GAMMAs            1.1661   1.1660   1.1660   1.1660   1.1660   1.1686   1.1685   1.1683
 SON VEL,M/SEC     4374.3   4385.5   4396.8   4408.2   4419.7   4260.2   4270.2   4280.2

 TRANSPORT PROPERTIES (GASES ONLY)
   CONDUCTIVITY IN UNITS OF MILLIWATTS/(CM)(K)

 VISC,MILLIPOISE  0.57478  0.57683  0.57888  0.58093  0.58298  0.55262  0.55465  0.55667

  WITH EQUILIBRIUM REACTIONS

 Cp, KJ/(KG)(K)   79.1705  80.1213  81.0779  82.0399  83.0073  67.3794  68.2218  69.0714
 CONDUCTIVITY     95.2660  96.5781  97.8947  99.2154 100.5398  79.2540  80.4548  81.6639
 PRANDTL NUMBER    0.4777   0.4785   0.4794   0.4804   0.4813   0.4698   0.4703   0.4708

  WITH FROZEN REACTIONS

 Cp, KJ/(KG)(K)   19.1660  19.1789  19.1918  19.2048  19.2177  19.0279  19.0407  19.0534
 CONDUCTIVITY     15.8168  15.8806  15.9443  16.0078  16.0711  15.1194  15.1840  15.2485
 PRANDTL NUMBER    0.6965   0.6966   0.6968   0.6969   0.6971   0.6955   0.6955   0.6956

 MOLE FRACTIONS

 *H               0.21533  0.21953  0.22377  0.22805  0.23238  0.16747  0.17104  0.17466
 *H2              0.78467  0.78047  0.77623  0.77195  0.76762  0.83253  0.82896  0.82534

  * THERMODYNAMIC PROPERTIES FITTED TO 20000.K

 NOTE. WEIGHT FRACTION OF FUEL IN TOTAL FUELS AND OF OXIDANT IN TOTAL OXIDANTS









               THERMODYNAMIC EQUILIBRIUM PROPERTIES AT ASSIGNED

                           TEMPERATURE AND PRESSURE

 CASE =                

             REACTANT                    WT FRACTION      ENERGY      TEMP
                                          (SEE NOTE)     KJ/KG-MOL      K  
             H2                           1.0000000         0.000      0.000

 O/F=    0.00000  %FUEL=100.000000  R,EQ.RATIO= 0.000000  PHI,EQ.RATIO= 0.000000

 THERMODYNAMIC PROPERTIES

 P, BAR            8.2500   8.2500   8.2500   8.2500   8.2500   8.2500   8.2500   8.2500
 T, K             3480.00  3490.00  3500.00  3510.00  3520.00  3530.00  3540.00  3550.00
 RHO, KG/CU M    5.2353-2 5.2097-2 5.1841-2 5.1585-2 5.1329-2 5.1073-2 5.0818-2 5.0563-2
 H, KJ/KG         75377.5  76081.1  76793.3  77514.3  78244.1  78982.8  79730.4  80487.1
 U, KJ/KG         59619.2  60245.3  60879.3  61521.3  62171.4  62829.6  63496.0  64170.6
 G, KJ/KG       -279436.2-280456.7-281479.4-282504.0-283530.8-284559.6-285590.5-286623.5
 S, KJ/(KG)(K)   101.9579 102.1598 102.3636 102.5693 102.7770 102.9865 103.1980 103.4114

 M, (1/n)           1.836    1.832    1.829    1.825    1.821    1.817    1.813    1.809
 (dLV/dLP)t      -1.04415 -1.04505 -1.04596 -1.04688 -1.04780 -1.04874 -1.04969 -1.05064
 (dLV/dLT)p        1.7042   1.7165   1.7290   1.7414   1.7540   1.7667   1.7794   1.7922
 Cp, KJ/(KG)(K)   69.9281  70.7918  71.6623  72.5395  73.4233  74.3136  75.2102  76.1130
 GAMMAs            1.1681   1.1680   1.1678   1.1677   1.1676   1.1675   1.1674   1.1673
 SON VEL,M/SEC     4290.4   4300.7   4311.0   4321.5   4332.0   4342.6   4353.4   4364.2

 TRANSPORT PROPERTIES (GASES ONLY)
   CONDUCTIVITY IN UNITS OF MILLIWATTS/(CM)(K)

 VISC,MILLIPOISE  0.55871  0.56074  0.56278  0.56482  0.56686  0.56891  0.57095  0.57300

  WITH EQUILIBRIUM REACTIONS

 Cp, KJ/(KG)(K)   69.9281  70.7917  71.6623  72.5395  73.4233  74.3136  75.2102  76.1130
 CONDUCTIVITY     82.8812  84.1063  85.3390  86.5790  87.8259  89.0794  90.3393  91.6051
 PRANDTL NUMBER    0.4714   0.4720   0.4726   0.4732   0.4739   0.4746   0.4753   0.4761

  WITH FROZEN REACTIONS

 Cp, KJ/(KG)(K)   19.0662  19.0790  19.0917  19.1045  19.1173  19.1300  19.1428  19.1556
 CONDUCTIVITY     15.3131  15.3777  15.4422  15.5067  15.5711  15.6355  15.6998  15.7640
 PRANDTL NUMBER    0.6956   0.6957   0.6958   0.6959   0.6960   0.6961   0.6962   0.6963

 MOLE FRACTIONS

 *H               0.17832  0.18203  0.18578  0.18959  0.19343  0.19732  0.20126  0.20525
 *H2              0.82168  0.81797  0.81422  0.81041  0.80657  0.80268  0.79874  0.79475

  * THERMODYNAMIC PROPERTIES FITTED TO 20000.K

 NOTE. WEIGHT FRACTION OF FUEL IN TOTAL FUELS AND OF OXIDANT IN TOTAL OXIDANTS









               THERMODYNAMIC EQUILIBRIUM PROPERTIES AT ASSIGNED

                           TEMPERATURE AND PRESSURE

 CASE =                

             REACTANT                    WT FRACTION      ENERGY      TEMP
                                          (SEE NOTE)     KJ/KG-MOL      K  
             H2                           1.0000000         0.000      0.000

 O/F=    0.00000  %FUEL=100.000000  R,EQ.RATIO= 0.000000  PHI,EQ.RATIO= 0.000000

 THERMODYNAMIC PROPERTIES

 P, BAR            8.2500   8.2500   8.2500   8.2500   9.1000   9.1000   9.1000   9.1000
 T, K             3560.00  3570.00  3580.00  3590.00  3450.00  3460.00  3470.00  3480.00
 RHO, KG/CU M    5.0307-2 5.0052-2 4.9798-2 4.9543-2 5.8830-2 5.8551-2 5.8272-2 5.7993-2
 H, KJ/KG         81252.7  82027.5  82811.5  83604.7  72325.0  72980.1  73643.4  74314.8
 U, KJ/KG         64853.5  65544.8  66244.4  66952.5  56856.8  57438.1  58026.9  58623.1
 G, KJ/KG       -287658.7-288696.1-289735.6-290777.4-274866.6-275873.8-276883.0-277894.2
 S, KJ/(KG)(K)   103.6268 103.8441 104.0634 104.2847 100.6352 100.8249 101.0163 101.2095

 M, (1/n)           1.805    1.801    1.797    1.793    1.854    1.851    1.847    1.844
 (dLV/dLP)t      -1.05160 -1.05258 -1.05356 -1.05454 -1.03974 -1.04057 -1.04142 -1.04228
 (dLV/dLT)p        1.8050   1.8180   1.8309   1.8440   1.6391   1.6508   1.6625   1.6743
 Cp, KJ/(KG)(K)   77.0218  77.9365  78.8568  79.7826  65.1122  65.9183  66.7314  67.5515
 GAMMAs            1.1672   1.1672   1.1671   1.1671   1.1700   1.1698   1.1696   1.1694
 SON VEL,M/SEC     4375.1   4386.1   4397.2   4408.4   4254.1   4263.8   4273.7   4283.6

 TRANSPORT PROPERTIES (GASES ONLY)
   CONDUCTIVITY IN UNITS OF MILLIWATTS/(CM)(K)

 VISC,MILLIPOISE  0.57505  0.57710  0.57914  0.58119  0.55114  0.55315  0.55516  0.55718

  WITH EQUILIBRIUM REACTIONS

 Cp, KJ/(KG)(K)   77.0218  77.9365  78.8568  79.7826  65.1122  65.9183  66.7314  67.5515
 CONDUCTIVITY     92.8765  94.1532  95.4347  96.7208  76.4540  77.6144  78.7834  79.9607
 PRANDTL NUMBER    0.4769   0.4777   0.4785   0.4794   0.4694   0.4698   0.4702   0.4707

  WITH FROZEN REACTIONS

 Cp, KJ/(KG)(K)   19.1683  19.1811  19.1938  19.2066  19.0203  19.0329  19.0456  19.0582
 CONDUCTIVITY     15.8280  15.8920  15.9557  16.0193  15.0726  15.1369  15.2012  15.2656
 PRANDTL NUMBER    0.6964   0.6965   0.6967   0.6968   0.6955   0.6955   0.6956   0.6956

 MOLE FRACTIONS

 *H               0.20927  0.21334  0.21746  0.22162  0.16015  0.16359  0.16706  0.17058
 *H2              0.79073  0.78666  0.78254  0.77838  0.83985  0.83641  0.83294  0.82942

  * THERMODYNAMIC PROPERTIES FITTED TO 20000.K

 NOTE. WEIGHT FRACTION OF FUEL IN TOTAL FUELS AND OF OXIDANT IN TOTAL OXIDANTS









               THERMODYNAMIC EQUILIBRIUM PROPERTIES AT ASSIGNED

                           TEMPERATURE AND PRESSURE

 CASE =                

             REACTANT                    WT FRACTION      ENERGY      TEMP
                                          (SEE NOTE)     KJ/KG-MOL      K  
             H2                           1.0000000         0.000      0.000

 O/F=    0.00000  %FUEL=100.000000  R,EQ.RATIO= 0.000000  PHI,EQ.RATIO= 0.000000

 THERMODYNAMIC PROPERTIES

 P, BAR            9.1000   9.1000   9.1000   9.1000   9.1000   9.1000   9.1000   9.1000
 T, K             3490.00  3500.00  3510.00  3520.00  3530.00  3540.00  3550.00  3560.00
 RHO, KG/CU M    5.7714-2 5.7435-2 5.7156-2 5.6878-2 5.6600-2 5.6322-2 5.6044-2 5.5766-2
 H, KJ/KG         74994.4  75682.4  76378.7  77083.5  77796.7  78518.5  79249.0  79988.1
 U, KJ/KG         59226.9  59838.4  60457.5  61084.3  61718.9  62361.3  63011.7  63670.0
 G, KJ/KG       -278907.2-279922.3-280939.3-281958.3-282979.3-284002.3-285027.4-286054.6
 S, KJ/(KG)(K)   101.4045 101.6013 101.8000 102.0005 102.2028 102.4070 102.6131 102.8210

 M, (1/n)           1.840    1.837    1.833    1.829    1.826    1.822    1.818    1.814
 (dLV/dLP)t      -1.04314 -1.04402 -1.04490 -1.04580 -1.04670 -1.04762 -1.04854 -1.04947
 (dLV/dLT)p        1.6862   1.6982   1.7102   1.7224   1.7346   1.7470   1.7593   1.7718
 Cp, KJ/(KG)(K)   68.3785  69.2122  70.0526  70.8995  71.7529  72.6125  73.4783  74.3501
 GAMMAs            1.1692   1.1690   1.1689   1.1688   1.1686   1.1685   1.1684   1.1683
 SON VEL,M/SEC     4293.6   4303.8   4314.0   4324.2   4334.6   4345.1   4355.7   4366.3

 TRANSPORT PROPERTIES (GASES ONLY)
   CONDUCTIVITY IN UNITS OF MILLIWATTS/(CM)(K)

 VISC,MILLIPOISE  0.55920  0.56123  0.56326  0.56529  0.56732  0.56936  0.57140  0.57344

  WITH EQUILIBRIUM REACTIONS

 Cp, KJ/(KG)(K)   68.3785  69.2122  70.0526  70.8995  71.7528  72.6125  73.4783  74.3501
 CONDUCTIVITY     81.1461  82.3393  83.5401  84.7482  85.9633  87.1852  88.4134  89.6477
 PRANDTL NUMBER    0.4712   0.4718   0.4723   0.4729   0.4735   0.4742   0.4749   0.4756

  WITH FROZEN REACTIONS

 Cp, KJ/(KG)(K)   19.0708  19.0835  19.0961  19.1087  19.1213  19.1340  19.1466  19.1592
 CONDUCTIVITY     15.3300  15.3944  15.4588  15.5232  15.5875  15.6518  15.7160  15.7801
 PRANDTL NUMBER    0.6957   0.6957   0.6958   0.6959   0.6959   0.6960   0.6961   0.6962

 MOLE FRACTIONS

 *H               0.17415  0.17776  0.18142  0.18512  0.18887  0.19266  0.19650  0.20038
 *H2              0.82585  0.82224  0.81858  0.81488  0.81113  0.80734  0.80350  0.79962

  * THERMODYNAMIC PROPERTIES FITTED TO 20000.K

 NOTE. WEIGHT FRACTION OF FUEL IN TOTAL FUELS AND OF OXIDANT IN TOTAL OXIDANTS









               THERMODYNAMIC EQUILIBRIUM PROPERTIES AT ASSIGNED

                           TEMPERATURE AND PRESSURE

 CASE =                

             REACTANT                    WT FRACTION      ENERGY      TEMP
                                          (SEE NOTE)     KJ/KG-MOL      K  
             H2                           1.0000000         0.000      0.000

 O/F=    0.00000  %FUEL=100.000000  R,EQ.RATIO= 0.000000  PHI,EQ.RATIO= 0.000000

 THERMODYNAMIC PROPERTIES

 P, BAR            9.1000   9.1000   9.1000   10.000   10.000   10.000   10.000   10.000
 T, K             3570.00  3580.00  3590.00  3450.00  3460.00  3470.00  3480.00  3490.00
 RHO, KG/CU M    5.5489-2 5.5212-2 5.4934-2 6.4886-2 6.4583-2 6.4280-2 6.3977-2 6.3675-2
 H, KJ/KG         80736.0  81492.7  82258.2  71413.8  72047.9  72689.8  73339.5  73997.1
 U, KJ/KG         64336.3  65010.6  65693.1  56002.2  56564.0  57132.9  57709.0  58292.3
 G, KJ/KG       -287083.9-288115.2-289148.7-273410.5-274410.8-275413.1-276417.2-277423.2
 S, KJ/(KG)(K)   103.0308 103.2424 103.4560  99.9491 100.1326 100.3178 100.5048 100.6935

 M, (1/n)           1.810    1.806    1.802    1.861    1.858    1.855    1.851    1.848
 (dLV/dLP)t      -1.05041 -1.05136 -1.05232 -1.03808 -1.03889 -1.03971 -1.04053 -1.04137
 (dLV/dLT)p        1.7843   1.7969   1.8096   1.6126   1.6238   1.6351   1.6465   1.6580
 Cp, KJ/(KG)(K)   75.2279  76.1113  77.0003  63.0272  63.7996  64.5788  65.3649  66.1577
 GAMMAs            1.1682   1.1682   1.1681   1.1713   1.1710   1.1708   1.1706   1.1704
 SON VEL,M/SEC     4377.1   4387.9   4398.8   4248.6   4258.2   4267.8   4277.5   4287.3

 TRANSPORT PROPERTIES (GASES ONLY)
   CONDUCTIVITY IN UNITS OF MILLIWATTS/(CM)(K)

 VISC,MILLIPOISE  0.57548  0.57753  0.57957  0.54974  0.55173  0.55373  0.55573  0.55774

  WITH EQUILIBRIUM REACTIONS

 Cp, KJ/(KG)(K)   75.2278  76.1113  77.0003  63.0272  63.7996  64.5788  65.3649  66.1577
 CONDUCTIVITY     90.8878  92.1333  93.3839  73.8576  74.9796  76.1104  77.2496  78.3971
 PRANDTL NUMBER    0.4763   0.4771   0.4779   0.4691   0.4695   0.4698   0.4702   0.4707

  WITH FROZEN REACTIONS

 Cp, KJ/(KG)(K)   19.1719  19.1845  19.1971  19.0133  19.0258  19.0383  19.0508  19.0633
 CONDUCTIVITY     15.8441  15.9080  15.9718  15.0280  15.0920  15.1561  15.2202  15.2843
 PRANDTL NUMBER    0.6964   0.6965   0.6966   0.6955   0.6955   0.6956   0.6956   0.6956

 MOLE FRACTIONS

 *H               0.20430  0.20827  0.21228  0.15339  0.15669  0.16004  0.16343  0.16686
 *H2              0.79570  0.79173  0.78772  0.84661  0.84331  0.83996  0.83657  0.83314

  * THERMODYNAMIC PROPERTIES FITTED TO 20000.K

 NOTE. WEIGHT FRACTION OF FUEL IN TOTAL FUELS AND OF OXIDANT IN TOTAL OXIDANTS









               THERMODYNAMIC EQUILIBRIUM PROPERTIES AT ASSIGNED

                           TEMPERATURE AND PRESSURE

 CASE =                

             REACTANT                    WT FRACTION      ENERGY      TEMP
                                          (SEE NOTE)     KJ/KG-MOL      K  
             H2                           1.0000000         0.000      0.000

 O/F=    0.00000  %FUEL=100.000000  R,EQ.RATIO= 0.000000  PHI,EQ.RATIO= 0.000000

 THERMODYNAMIC PROPERTIES

 P, BAR            10.000   10.000   10.000   10.000   10.000   10.000   10.000   10.000
 T, K             3500.00  3510.00  3520.00  3530.00  3540.00  3550.00  3560.00  3570.00
 RHO, KG/CU M    6.3372-2 6.3070-2 6.2768-2 6.2466-2 6.2165-2 6.1863-2 6.1562-2 6.1261-2
 H, KJ/KG         74662.7  75336.3  76018.0  76707.8  77405.9  78112.2  78826.9  79550.0
 U, KJ/KG         58883.0  59481.0  60086.4  60699.2  61319.6  61947.6  62583.2  63226.5
 G, KJ/KG       -278431.1-279440.9-280452.6-281466.3-282481.9-283499.5-284519.2-285540.8
 S, KJ/(KG)(K)   100.8839 101.0761 101.2700 101.4657 101.6632 101.8625 102.0635 102.2663

 M, (1/n)           1.844    1.841    1.837    1.833    1.830    1.826    1.822    1.818
 (dLV/dLP)t      -1.04222 -1.04307 -1.04394 -1.04481 -1.04570 -1.04659 -1.04749 -1.04840
 (dLV/dLT)p        1.6696   1.6813   1.6930   1.7049   1.7168   1.7288   1.7409   1.7530
 Cp, KJ/(KG)(K)   66.9572  67.7632  68.5756  69.3944  70.2195  71.0507  71.8879  72.7310
 GAMMAs            1.1702   1.1701   1.1699   1.1698   1.1696   1.1695   1.1694   1.1693
 SON VEL,M/SEC     4297.2   4307.2   4317.3   4327.4   4337.6   4348.0   4358.4   4368.9

 TRANSPORT PROPERTIES (GASES ONLY)
   CONDUCTIVITY IN UNITS OF MILLIWATTS/(CM)(K)

 VISC,MILLIPOISE  0.55975  0.56177  0.56379  0.56581  0.56784  0.56987  0.57190  0.57394

  WITH EQUILIBRIUM REACTIONS

 Cp, KJ/(KG)(K)   66.9572  67.7632  68.5756  69.3944  70.2195  71.0507  71.8879  72.7310
 CONDUCTIVITY     79.5526  80.7159  81.8868  83.0649  84.2501  85.4420  86.6404  87.8450
 PRANDTL NUMBER    0.4711   0.4716   0.4721   0.4727   0.4733   0.4739   0.4745   0.4752

  WITH FROZEN REACTIONS

 Cp, KJ/(KG)(K)   19.0759  19.0884  19.1009  19.1134  19.1259  19.1384  19.1509  19.1634
 CONDUCTIVITY     15.3485  15.4128  15.4770  15.5412  15.6054  15.6696  15.7337  15.7978
 PRANDTL NUMBER    0.6957   0.6957   0.6958   0.6959   0.6959   0.6960   0.6961   0.6962

 MOLE FRACTIONS

 *H               0.17034  0.17386  0.17743  0.18104  0.18469  0.18839  0.19213  0.19591
 *H2              0.82966  0.82614  0.82257  0.81896  0.81531  0.81161  0.80787  0.80409

  * THERMODYNAMIC PROPERTIES FITTED TO 20000.K

 NOTE. WEIGHT FRACTION OF FUEL IN TOTAL FUELS AND OF OXIDANT IN TOTAL OXIDANTS









               THERMODYNAMIC EQUILIBRIUM PROPERTIES AT ASSIGNED

                           TEMPERATURE AND PRESSURE

 CASE =                

             REACTANT                    WT FRACTION      ENERGY      TEMP
                                          (SEE NOTE)     KJ/KG-MOL      K  
             H2                           1.0000000         0.000      0.000

 O/F=    0.00000  %FUEL=100.000000  R,EQ.RATIO= 0.000000  PHI,EQ.RATIO= 0.000000

 THERMODYNAMIC PROPERTIES

 P, BAR            10.000   10.000   11.000   11.000   11.000   11.000   11.000   11.000
 T, K             3580.00  3590.00  3450.00  3460.00  3470.00  3480.00  3490.00  3500.00
 RHO, KG/CU M    6.0961-2 6.0660-2 7.1629-2 7.1300-2 7.0971-2 7.0642-2 7.0313-2 6.9985-2
 H, KJ/KG         80281.6  81021.6  70534.7  71148.5  71769.7  72398.5  73034.8  73678.7
 U, KJ/KG         63877.6  64536.4  55177.8  55720.7  56270.4  56827.0  57390.5  57961.0
 G, KJ/KG       -286564.5-287590.2-271944.2-272937.8-273933.1-274930.3-275929.3-276930.1
 S, KJ/(KG)(K)   102.4710 102.6774  99.2692  99.4469  99.6262  99.8071  99.9897 100.1739

 M, (1/n)           1.815    1.811    1.868    1.865    1.861    1.858    1.855    1.851
 (dLV/dLP)t      -1.04932 -1.05025 -1.03647 -1.03725 -1.03804 -1.03884 -1.03964 -1.04046
 (dLV/dLT)p        1.7652   1.7775   1.5867   1.5975   1.6084   1.6194   1.6305   1.6417
 Cp, KJ/(KG)(K)   73.5798  74.4343  61.0117  61.7512  62.4974  63.2502  64.0096  64.7756
 GAMMAs            1.1692   1.1691   1.1726   1.1724   1.1721   1.1719   1.1717   1.1715
 SON VEL,M/SEC     4379.5   4390.2   4243.5   4252.9   4262.3   4271.8   4281.4   4291.1

 TRANSPORT PROPERTIES (GASES ONLY)
   CONDUCTIVITY IN UNITS OF MILLIWATTS/(CM)(K)

 VISC,MILLIPOISE  0.57597  0.57801  0.54834  0.55032  0.55230  0.55429  0.55628  0.55828

  WITH EQUILIBRIUM REACTIONS

 Cp, KJ/(KG)(K)   73.5798  74.4343  61.0117  61.7512  62.4973  63.2502  64.0096  64.7756
 CONDUCTIVITY     89.0555  90.2715  71.3278  72.4117  73.5044  74.6056  75.7152  76.8330
 PRANDTL NUMBER    0.4759   0.4766   0.4690   0.4693   0.4696   0.4699   0.4703   0.4707

  WITH FROZEN REACTIONS

 Cp, KJ/(KG)(K)   19.1759  19.1884  19.0066  19.0190  19.0314  19.0437  19.0561  19.0685
 CONDUCTIVITY     15.8617  15.9256  14.9835  15.0471  15.1108  15.1746  15.2385  15.3025
 PRANDTL NUMBER    0.6963   0.6964   0.6956   0.6956   0.6956   0.6956   0.6956   0.6957

 MOLE FRACTIONS

 *H               0.19974  0.20361  0.14682  0.14999  0.15321  0.15647  0.15977  0.16312
 *H2              0.80026  0.79639  0.85318  0.85001  0.84679  0.84353  0.84023  0.83688

  * THERMODYNAMIC PROPERTIES FITTED TO 20000.K

 NOTE. WEIGHT FRACTION OF FUEL IN TOTAL FUELS AND OF OXIDANT IN TOTAL OXIDANTS









               THERMODYNAMIC EQUILIBRIUM PROPERTIES AT ASSIGNED

                           TEMPERATURE AND PRESSURE

 CASE =                

             REACTANT                    WT FRACTION      ENERGY      TEMP
                                          (SEE NOTE)     KJ/KG-MOL      K  
             H2                           1.0000000         0.000      0.000

 O/F=    0.00000  %FUEL=100.000000  R,EQ.RATIO= 0.000000  PHI,EQ.RATIO= 0.000000

 THERMODYNAMIC PROPERTIES

 P, BAR            11.000   11.000   11.000   11.000   11.000   11.000   11.000   11.000
 T, K             3510.00  3520.00  3530.00  3540.00  3550.00  3560.00  3570.00  3580.00
 RHO, KG/CU M    6.9657-2 6.9329-2 6.9001-2 6.8674-2 6.8346-2 6.8019-2 6.7693-2 6.7366-2
 H, KJ/KG         74330.3  74989.7  75656.9  76331.9  77014.9  77705.9  78405.0  79112.2
 U, KJ/KG         58538.6  59123.2  59715.1  60314.1  60920.5  61534.1  62155.1  62783.6
 G, KJ/KG       -277932.7-278937.3-279943.7-280952.0-281962.3-282974.4-283988.6-285004.7
 S, KJ/(KG)(K)   100.3598 100.5474 100.7367 100.9277 101.1203 101.3147 101.5108 101.7086

 M, (1/n)           1.848    1.845    1.841    1.838    1.834    1.830    1.827    1.823
 (dLV/dLP)t      -1.04128 -1.04212 -1.04296 -1.04382 -1.04468 -1.04555 -1.04643 -1.04732
 (dLV/dLT)p        1.6530   1.6643   1.6758   1.6873   1.6989   1.7106   1.7224   1.7342
 Cp, KJ/(KG)(K)   65.5479  66.3267  67.1116  67.9028  68.7000  69.5031  70.3121  71.1269
 GAMMAs            1.1713   1.1711   1.1710   1.1708   1.1707   1.1706   1.1704   1.1703
 SON VEL,M/SEC     4300.8   4310.7   4320.6   4330.6   4340.7   4350.9   4361.1   4371.5

 TRANSPORT PROPERTIES (GASES ONLY)
   CONDUCTIVITY IN UNITS OF MILLIWATTS/(CM)(K)

 VISC,MILLIPOISE  0.56028  0.56229  0.56430  0.56632  0.56834  0.57036  0.57238  0.57441

  WITH EQUILIBRIUM REACTIONS

 Cp, KJ/(KG)(K)   65.5479  66.3266  67.1116  67.9028  68.7000  69.5031  70.3121  71.1269
 CONDUCTIVITY     77.9587  79.0922  80.2331  81.3814  82.5367  83.6987  84.8673  86.0421
 PRANDTL NUMBER    0.4711   0.4715   0.4720   0.4725   0.4731   0.4736   0.4742   0.4748

  WITH FROZEN REACTIONS

 Cp, KJ/(KG)(K)   19.0809  19.0933  19.1057  19.1181  19.1304  19.1428  19.1552  19.1676
 CONDUCTIVITY     15.3665  15.4305  15.4946  15.5586  15.6227  15.6867  15.7507  15.8147
 PRANDTL NUMBER    0.6957   0.6958   0.6958   0.6959   0.6959   0.6960   0.6961   0.6962

 MOLE FRACTIONS

 *H               0.16651  0.16994  0.17341  0.17693  0.18049  0.18410  0.18774  0.19143
 *H2              0.83349  0.83006  0.82659  0.82307  0.81951  0.81590  0.81226  0.80857

  * THERMODYNAMIC PROPERTIES FITTED TO 20000.K

 NOTE. WEIGHT FRACTION OF FUEL IN TOTAL FUELS AND OF OXIDANT IN TOTAL OXIDANTS









               THERMODYNAMIC EQUILIBRIUM PROPERTIES AT ASSIGNED

                           TEMPERATURE AND PRESSURE

 CASE =                

             REACTANT                    WT FRACTION      ENERGY      TEMP
                                          (SEE NOTE)     KJ/KG-MOL      K  
             H2                           1.0000000         0.000      0.000

 O/F=    0.00000  %FUEL=100.000000  R,EQ.RATIO= 0.000000  PHI,EQ.RATIO= 0.000000

 THERMODYNAMIC PROPERTIES

 P, BAR            11.000
 T, K             3590.00
 RHO, KG/CU M    6.7040-2
 H, KJ/KG         79827.6
 U, KJ/KG         63419.5
 G, KJ/KG       -286022.7
 S, KJ/(KG)(K)   101.9082

 M, (1/n)           1.819
 (dLV/dLP)t      -1.04822
 (dLV/dLT)p        1.7461
 Cp, KJ/(KG)(K)   71.9473
 GAMMAs            1.1702
 SON VEL,M/SEC     4381.9

 TRANSPORT PROPERTIES (GASES ONLY)
   CONDUCTIVITY IN UNITS OF MILLIWATTS/(CM)(K)

 VISC,MILLIPOISE  0.57644

  WITH EQUILIBRIUM REACTIONS

 Cp, KJ/(KG)(K)   71.9473
 CONDUCTIVITY     87.2229
 PRANDTL NUMBER    0.4755

  WITH FROZEN REACTIONS

 Cp, KJ/(KG)(K)   19.1799
 CONDUCTIVITY     15.8786
 PRANDTL NUMBER    0.6963

 MOLE FRACTIONS

 *H               0.19516
 *H2              0.80484

  * THERMODYNAMIC PROPERTIES FITTED TO 20000.K

 NOTE. WEIGHT FRACTION OF FUEL IN TOTAL FUELS AND OF OXIDANT IN TOTAL OXIDANTS



  
