
 *******************************************************************************

         NASA-GLENN CHEMICAL EQUILIBRIUM PROGRAM CEA2, MAY 21, 2004
                   BY  BONNIE MCBRIDE AND SANFORD GORDON
      REFS: NASA RP-1311, PART I, 1994 AND NASA RP-1311, PART II, 1996

 *******************************************************************************



  prob tp ions
  p,bar= 0.54,0.6,0.67,0.74,0.825,0.91,1.0,1.1,1.2,1.32,1.48,1.65,1.8,2.0,2.25
  t,k= 4500,4510,4520,4530,4540,4550,4560,4570,4580,4590,4600,4610,4620,4630,4640
  
  reac
  na H2                wt%=100.0000
  
  output short
  output siunits
  output transport
  
 end





               THERMODYNAMIC EQUILIBRIUM PROPERTIES AT ASSIGNED

                           TEMPERATURE AND PRESSURE

 CASE =                

             REACTANT                    WT FRACTION      ENERGY      TEMP
                                          (SEE NOTE)     KJ/KG-MOL      K  
             H2                           1.0000000         0.000      0.000

 O/F=    0.00000  %FUEL=100.000000  R,EQ.RATIO= 0.000000  PHI,EQ.RATIO= 0.000000

 THERMODYNAMIC PROPERTIES

 P, BAR           0.54000  0.54000  0.54000  0.54000  0.54000  0.54000  0.54000  0.54000
 T, K             4500.00  4510.00  4520.00  4530.00  4540.00  4550.00  4560.00  4570.00
 RHO, KG/CU M    1.5149-3 1.5101-3 1.5053-3 1.5005-3 1.4958-3 1.4912-3 1.4867-3 1.4822-3
 H, KJ/KG        284635.5 285281.7 285916.4 286540.2 287153.4 287756.3 288349.1 288932.0
 U, KJ/KG        248990.3 249521.8 250042.4 250552.9 251053.5 251544.5 252026.1 252498.5
 G, KJ/KG       -485559.0-487269.0-488982.7-490697.7-492414.2-494131.9-495851.0-497571.4
 S, KJ/(KG)(K)   171.1543 171.2973 171.4379 171.5757 171.7109 171.8436 171.9737 172.1014

 M, (1/n)           1.050    1.049    1.048    1.047    1.046    1.045    1.044    1.043
 (dLV/dLP)t      -1.03658 -1.03578 -1.03499 -1.03422 -1.03346 -1.03272 -1.03200 -1.03129
 (dLV/dLT)p        1.4538   1.4428   1.4321   1.4217   1.4115   1.4015   1.3918   1.3823
 Cp, KJ/(KG)(K)   65.1438  64.0196  62.9198  61.8464  60.7990  59.7770  58.7801  57.8078
 GAMMAs            1.2827   1.2854   1.2882   1.2910   1.2938   1.2967   1.2995   1.3025
 SON VEL,M/SEC     6761.9   6779.9   6798.0   6816.1   6834.2   6852.3   6870.5   6888.6

 TRANSPORT PROPERTIES (GASES ONLY)
   CONDUCTIVITY IN UNITS OF MILLIWATTS/(CM)(K)

 VISC,MILLIPOISE  0.53744  0.53749  0.53756  0.53766  0.53776  0.53789  0.53803  0.53819

  WITH EQUILIBRIUM REACTIONS

 Cp, KJ/(KG)(K)   65.1422  64.0196  62.9198  61.8464  60.7990  59.7770  58.7801  57.8078
 CONDUCTIVITY     58.4065  57.3873  56.3926  55.4223  54.4758  53.5528  52.6528  51.7753
 PRANDTL NUMBER    0.5994   0.5996   0.5998   0.6000   0.6002   0.6004   0.6006   0.6009

  WITH FROZEN REACTIONS

 Cp, KJ/(KG)(K)   20.5596  20.5617  20.5638  20.5659  20.5678  20.5697  20.5716  20.5734
 CONDUCTIVITY     16.0760  16.0889  16.1026  16.1166  16.1309  16.1455  16.1604  16.1755
 PRANDTL NUMBER    0.6873   0.6869   0.6865   0.6861   0.6857   0.6853   0.6849   0.6845

 MOLE FRACTIONS

 *H               0.95861  0.95964  0.96065  0.96163  0.96258  0.96351  0.96441  0.96529
 *H2              0.04139  0.04036  0.03935  0.03837  0.03741  0.03649  0.03559  0.03471

  * THERMODYNAMIC PROPERTIES FITTED TO 20000.K

 NOTE. WEIGHT FRACTION OF FUEL IN TOTAL FUELS AND OF OXIDANT IN TOTAL OXIDANTS









               THERMODYNAMIC EQUILIBRIUM PROPERTIES AT ASSIGNED

                           TEMPERATURE AND PRESSURE

 CASE =                

             REACTANT                    WT FRACTION      ENERGY      TEMP
                                          (SEE NOTE)     KJ/KG-MOL      K  
             H2                           1.0000000         0.000      0.000

 O/F=    0.00000  %FUEL=100.000000  R,EQ.RATIO= 0.000000  PHI,EQ.RATIO= 0.000000

 THERMODYNAMIC PROPERTIES

 P, BAR           0.54000  0.54000  0.54000  0.54000  0.54000  0.54000  0.54000  0.60000
 T, K             4580.00  4590.00  4600.00  4610.00  4620.00  4630.00  4640.00  4500.00
 RHO, KG/CU M    1.4777-3 1.4733-3 1.4689-3 1.4646-3 1.4604-3 1.4562-3 1.4520-3 1.6900-3
 H, KJ/KG        289505.3 290069.2 290624.1 291170.0 291707.2 292236.0 292756.6 282861.2
 U, KJ/KG        252961.9 253416.6 253862.8 254300.8 254730.6 255152.6 255566.9 247359.1
 G, KJ/KG       -499293.1-501015.9-502740.0-504465.3-506191.8-507919.4-509648.2-481808.6
 S, KJ/(KG)(K)   172.2267 172.3497 172.4705 172.5890 172.7054 172.8198 172.9321 169.9266

 M, (1/n)           1.042    1.041    1.040    1.040    1.039    1.038    1.037    1.054
 (dLV/dLP)t      -1.03060 -1.02992 -1.02926 -1.02862 -1.02798 -1.02736 -1.02676 -1.03980
 (dLV/dLT)p        1.3730   1.3640   1.3552   1.3466   1.3382   1.3300   1.3220   1.4936
 Cp, KJ/(KG)(K)   56.8595  55.9350  55.0336  54.1550  53.2986  52.4640  51.6507  68.8593
 GAMMAs            1.3054   1.3084   1.3113   1.3144   1.3174   1.3205   1.3236   1.2752
 SON VEL,M/SEC     6906.8   6924.9   6943.1   6961.3   6979.5   6997.7   7015.9   6728.5

 TRANSPORT PROPERTIES (GASES ONLY)
   CONDUCTIVITY IN UNITS OF MILLIWATTS/(CM)(K)

 VISC,MILLIPOISE  0.53836  0.53855  0.53876  0.53898  0.53921  0.53946  0.53973  0.54114

  WITH EQUILIBRIUM REACTIONS

 Cp, KJ/(KG)(K)   56.8595  55.9350  55.0336  54.1550  53.2986  52.4640  51.6507  68.8593
 CONDUCTIVITY     50.9199  50.0862  49.2737  48.4820  47.7106  46.9590  46.2269  62.1884
 PRANDTL NUMBER    0.6012   0.6014   0.6017   0.6020   0.6024   0.6027   0.6031   0.5992

  WITH FROZEN REACTIONS

 Cp, KJ/(KG)(K)   20.5751  20.5767  20.5784  20.5799  20.5814  20.5829  20.5843  20.5534
 CONDUCTIVITY     16.1910  16.2066  16.2226  16.2388  16.2553  16.2720  16.2889  16.1408
 PRANDTL NUMBER    0.6841   0.6838   0.6834   0.6831   0.6827   0.6824   0.6821   0.6891

 MOLE FRACTIONS

 *H               0.96614  0.96697  0.96778  0.96857  0.96933  0.97008  0.97080  0.95441
 *H2              0.03385  0.03302  0.03222  0.03143  0.03066  0.02992  0.02920  0.04559

  * THERMODYNAMIC PROPERTIES FITTED TO 20000.K

 NOTE. WEIGHT FRACTION OF FUEL IN TOTAL FUELS AND OF OXIDANT IN TOTAL OXIDANTS









               THERMODYNAMIC EQUILIBRIUM PROPERTIES AT ASSIGNED

                           TEMPERATURE AND PRESSURE

 CASE =                

             REACTANT                    WT FRACTION      ENERGY      TEMP
                                          (SEE NOTE)     KJ/KG-MOL      K  
             H2                           1.0000000         0.000      0.000

 O/F=    0.00000  %FUEL=100.000000  R,EQ.RATIO= 0.000000  PHI,EQ.RATIO= 0.000000

 THERMODYNAMIC PROPERTIES

 P, BAR           0.60000  0.60000  0.60000  0.60000  0.60000  0.60000  0.60000  0.60000
 T, K             4510.00  4520.00  4530.00  4540.00  4550.00  4560.00  4570.00  4580.00
 RHO, KG/CU M    1.6845-3 1.6790-3 1.6735-3 1.6682-3 1.6629-3 1.6577-3 1.6525-3 1.6474-3
 H, KJ/KG        283543.8 284214.6 284873.9 285521.9 286158.9 286785.2 287400.9 288006.5
 U, KJ/KG        247924.3 248478.4 249021.8 249554.7 250077.3 250589.9 251092.8 251586.0
 G, KJ/KG       -483508.6-485210.1-486913.1-488617.6-490323.4-492030.7-493739.3-495449.2
 S, KJ/(KG)(K)   170.0781 170.2267 170.3724 170.5153 170.6555 170.7929 170.9278 171.0602

 M, (1/n)           1.053    1.052    1.051    1.050    1.048    1.047    1.047    1.046
 (dLV/dLP)t      -1.03894 -1.03810 -1.03728 -1.03647 -1.03568 -1.03491 -1.03415 -1.03341
 (dLV/dLT)p        1.4819   1.4705   1.4594   1.4484   1.4378   1.4274   1.4172   1.4072
 Cp, KJ/(KG)(K)   67.6659  66.4996  65.3600  64.2467  63.1594  62.0976  61.0610  60.0491
 GAMMAs            1.2778   1.2804   1.2830   1.2857   1.2884   1.2912   1.2939   1.2967
 SON VEL,M/SEC     6746.4   6764.4   6782.3   6800.3   6818.3   6836.3   6854.3   6872.3

 TRANSPORT PROPERTIES (GASES ONLY)
   CONDUCTIVITY IN UNITS OF MILLIWATTS/(CM)(K)

 VISC,MILLIPOISE  0.54113  0.54114  0.54117  0.54122  0.54128  0.54136  0.54146  0.54158

  WITH EQUILIBRIUM REACTIONS

 Cp, KJ/(KG)(K)   67.6659  66.4996  65.3600  64.2467  63.1594  62.0976  61.0610  60.0491
 CONDUCTIVITY     61.0991  60.0351  58.9962  57.9818  56.9916  56.0251  55.0820  54.1618
 PRANDTL NUMBER    0.5993   0.5994   0.5995   0.5997   0.5999   0.6000   0.6002   0.6004

  WITH FROZEN REACTIONS

 Cp, KJ/(KG)(K)   20.5558  20.5581  20.5603  20.5625  20.5645  20.5665  20.5685  20.5704
 CONDUCTIVITY     16.1530  16.1655  16.1784  16.1915  16.2050  16.2188  16.2329  16.2472
 PRANDTL NUMBER    0.6886   0.6882   0.6877   0.6873   0.6869   0.6865   0.6861   0.6857

 MOLE FRACTIONS

 *H               0.95554  0.95664  0.95771  0.95876  0.95977  0.96076  0.96172  0.96265
 *H2              0.04446  0.04336  0.04228  0.04124  0.04023  0.03924  0.03828  0.03734

  * THERMODYNAMIC PROPERTIES FITTED TO 20000.K

 NOTE. WEIGHT FRACTION OF FUEL IN TOTAL FUELS AND OF OXIDANT IN TOTAL OXIDANTS









               THERMODYNAMIC EQUILIBRIUM PROPERTIES AT ASSIGNED

                           TEMPERATURE AND PRESSURE

 CASE =                

             REACTANT                    WT FRACTION      ENERGY      TEMP
                                          (SEE NOTE)     KJ/KG-MOL      K  
             H2                           1.0000000         0.000      0.000

 O/F=    0.00000  %FUEL=100.000000  R,EQ.RATIO= 0.000000  PHI,EQ.RATIO= 0.000000

 THERMODYNAMIC PROPERTIES

 P, BAR           0.60000  0.60000  0.60000  0.60000  0.60000  0.60000  0.67000  0.67000
 T, K             4590.00  4600.00  4610.00  4620.00  4630.00  4640.00  4500.00  4510.00
 RHO, KG/CU M    1.6424-3 1.6374-3 1.6325-3 1.6277-3 1.6229-3 1.6181-3 1.8959-3 1.8895-3
 H, KJ/KG        288602.0 289187.8 289764.0 290331.0 290888.9 291438.0 280846.0 281569.1
 U, KJ/KG        252070.0 252544.9 253010.9 253468.3 253917.2 254357.9 245506.3 246109.1
 G, KJ/KG       -497160.5-498873.0-500586.8-502301.9-504018.1-505735.6-477899.8-479586.7
 S, KJ/(KG)(K)   171.1901 171.3176 171.4427 171.5656 171.6862 171.8046 168.6102 168.7707

 M, (1/n)           1.045    1.044    1.043    1.042    1.041    1.040    1.059    1.057
 (dLV/dLP)t      -1.03268 -1.03197 -1.03128 -1.03060 -1.02993 -1.02928 -1.04337 -1.04246
 (dLV/dLT)p        1.3975   1.3881   1.3788   1.3698   1.3610   1.3524   1.5380   1.5255
 Cp, KJ/(KG)(K)   59.0615  58.0978  57.1575  56.2402  55.3455  54.4730  72.9504  71.6890
 GAMMAs            1.2996   1.3024   1.3053   1.3082   1.3112   1.3141   1.2679   1.2703
 SON VEL,M/SEC     6890.3   6908.3   6926.4   6944.4   6962.4   6980.5   6693.7   6711.5

 TRANSPORT PROPERTIES (GASES ONLY)
   CONDUCTIVITY IN UNITS OF MILLIWATTS/(CM)(K)

 VISC,MILLIPOISE  0.54171  0.54186  0.54202  0.54220  0.54240  0.54261  0.54531  0.54524

  WITH EQUILIBRIUM REACTIONS

 Cp, KJ/(KG)(K)   59.0615  58.0978  57.1575  56.2402  55.3455  54.4730  72.9504  71.6890
 CONDUCTIVITY     53.2640  52.3884  51.5344  50.7016  49.8896  49.0980  66.3990  65.2365
 PRANDTL NUMBER    0.6007   0.6009   0.6012   0.6014   0.6017   0.6020   0.5991   0.5992

  WITH FROZEN REACTIONS

 Cp, KJ/(KG)(K)   20.5722  20.5739  20.5756  20.5773  20.5789  20.5804  20.5465  20.5491
 CONDUCTIVITY     16.2619  16.2768  16.2920  16.3075  16.3232  16.3392  16.2149  16.2258
 PRANDTL NUMBER    0.6853   0.6849   0.6845   0.6842   0.6838   0.6835   0.6910   0.6905

 MOLE FRACTIONS

 *H               0.96356  0.96445  0.96531  0.96615  0.96697  0.96776  0.94960  0.95084
 *H2              0.03643  0.03555  0.03469  0.03385  0.03303  0.03224  0.05040  0.04916

  * THERMODYNAMIC PROPERTIES FITTED TO 20000.K

 NOTE. WEIGHT FRACTION OF FUEL IN TOTAL FUELS AND OF OXIDANT IN TOTAL OXIDANTS









               THERMODYNAMIC EQUILIBRIUM PROPERTIES AT ASSIGNED

                           TEMPERATURE AND PRESSURE

 CASE =                

             REACTANT                    WT FRACTION      ENERGY      TEMP
                                          (SEE NOTE)     KJ/KG-MOL      K  
             H2                           1.0000000         0.000      0.000

 O/F=    0.00000  %FUEL=100.000000  R,EQ.RATIO= 0.000000  PHI,EQ.RATIO= 0.000000

 THERMODYNAMIC PROPERTIES

 P, BAR           0.67000  0.67000  0.67000  0.67000  0.67000  0.67000  0.67000  0.67000
 T, K             4520.00  4530.00  4540.00  4550.00  4560.00  4570.00  4580.00  4590.00
 RHO, KG/CU M    1.8831-3 1.8768-3 1.8707-3 1.8646-3 1.8585-3 1.8526-3 1.8467-3 1.8409-3
 H, KJ/KG        282279.8 282978.3 283664.9 284339.7 285003.2 285655.4 286296.8 286927.5
 U, KJ/KG        246700.3 247280.1 247848.7 248406.4 248953.5 249490.1 250016.6 250533.2
 G, KJ/KG       -481275.2-482965.3-484656.9-486350.0-488044.5-489740.5-491437.9-493136.7
 S, KJ/(KG)(K)   168.9281 169.0825 169.2339 169.3823 169.5280 169.6709 169.8111 169.9486

 M, (1/n)           1.056    1.055    1.054    1.053    1.052    1.051    1.050    1.049
 (dLV/dLP)t      -1.04157 -1.04069 -1.03983 -1.03899 -1.03816 -1.03735 -1.03656 -1.03578
 (dLV/dLT)p        1.5133   1.5014   1.4898   1.4784   1.4672   1.4563   1.4456   1.4352
 Cp, KJ/(KG)(K)   70.4546  69.2470  68.0658  66.9108  65.7815  64.6778  63.5992  62.5453
 GAMMAs            1.2728   1.2753   1.2778   1.2804   1.2830   1.2856   1.2882   1.2909
 SON VEL,M/SEC     6729.4   6747.2   6765.0   6782.9   6800.7   6818.6   6836.5   6854.3

 TRANSPORT PROPERTIES (GASES ONLY)
   CONDUCTIVITY IN UNITS OF MILLIWATTS/(CM)(K)

 VISC,MILLIPOISE  0.54518  0.54514  0.54512  0.54512  0.54514  0.54517  0.54522  0.54529

  WITH EQUILIBRIUM REACTIONS

 Cp, KJ/(KG)(K)   70.4546  69.2470  68.0658  66.9108  65.7815  64.6778  63.5992  62.5453
 CONDUCTIVITY     64.0998  62.9885  61.9023  60.8408  59.8036  58.7904  57.8009  56.8346
 PRANDTL NUMBER    0.5992   0.5993   0.5994   0.5995   0.5996   0.5998   0.5999   0.6001

  WITH FROZEN REACTIONS

 Cp, KJ/(KG)(K)   20.5516  20.5540  20.5563  20.5586  20.5608  20.5629  20.5650  20.5670
 CONDUCTIVITY     16.2370  16.2486  16.2605  16.2728  16.2853  16.2982  16.3114  16.3249
 PRANDTL NUMBER    0.6900   0.6896   0.6891   0.6887   0.6883   0.6878   0.6874   0.6870

 MOLE FRACTIONS

 *H               0.95205  0.95322  0.95437  0.95548  0.95656  0.95762  0.95864  0.95964
 *H2              0.04795  0.04678  0.04563  0.04452  0.04344  0.04238  0.04135  0.04035

  * THERMODYNAMIC PROPERTIES FITTED TO 20000.K

 NOTE. WEIGHT FRACTION OF FUEL IN TOTAL FUELS AND OF OXIDANT IN TOTAL OXIDANTS









               THERMODYNAMIC EQUILIBRIUM PROPERTIES AT ASSIGNED

                           TEMPERATURE AND PRESSURE

 CASE =                

             REACTANT                    WT FRACTION      ENERGY      TEMP
                                          (SEE NOTE)     KJ/KG-MOL      K  
             H2                           1.0000000         0.000      0.000

 O/F=    0.00000  %FUEL=100.000000  R,EQ.RATIO= 0.000000  PHI,EQ.RATIO= 0.000000

 THERMODYNAMIC PROPERTIES

 P, BAR           0.67000  0.67000  0.67000  0.67000  0.67000  0.74000  0.74000  0.74000
 T, K             4600.00  4610.00  4620.00  4630.00  4640.00  4500.00  4510.00  4520.00
 RHO, KG/CU M    1.8352-3 1.8296-3 1.8240-3 1.8185-3 1.8130-3 2.1034-3 2.0960-3 2.0888-3
 H, KJ/KG        287547.8 288157.9 288758.1 289348.5 289929.5 278887.6 279649.0 280397.3
 U, KJ/KG        251040.0 251537.4 252025.5 252504.5 252974.8 243705.9 244344.2 244970.2
 G, KJ/KG       -494836.9-496538.4-498241.2-499945.3-501650.7-474395.8-476070.6-477747.1
 S, KJ/(KG)(K)   170.0836 170.2161 170.3462 170.4738 170.5992 167.3963 167.5653 167.7311

 M, (1/n)           1.048    1.047    1.046    1.045    1.044    1.063    1.062    1.061
 (dLV/dLP)t      -1.03502 -1.03427 -1.03354 -1.03283 -1.03212 -1.04678 -1.04582 -1.04488
 (dLV/dLT)p        1.4250   1.4151   1.4054   1.3959   1.3866   1.5802   1.5670   1.5542
 Cp, KJ/(KG)(K)   61.5159  60.5104  59.5286  58.5699  57.6341  76.7997  75.4799  74.1867
 GAMMAs            1.2936   1.2964   1.2991   1.3019   1.3047   1.2617   1.2640   1.2663
 SON VEL,M/SEC     6872.2   6890.1   6908.0   6925.9   6943.8   6662.5   6680.2   6698.0

 TRANSPORT PROPERTIES (GASES ONLY)
   CONDUCTIVITY IN UNITS OF MILLIWATTS/(CM)(K)

 VISC,MILLIPOISE  0.54538  0.54548  0.54560  0.54574  0.54589  0.54934  0.54920  0.54908

  WITH EQUILIBRIUM REACTIONS

 Cp, KJ/(KG)(K)   61.5159  60.5104  59.5286  58.5699  57.6341  76.7997  75.4799  74.1867
 CONDUCTIVITY     55.8911  54.9700  54.0710  53.1936  52.3374  70.4058  69.1783  67.9767
 PRANDTL NUMBER    0.6003   0.6005   0.6007   0.6009   0.6011   0.5992   0.5992   0.5992

  WITH FROZEN REACTIONS

 Cp, KJ/(KG)(K)   20.5689  20.5708  20.5726  20.5743  20.5760  20.5398  20.5425  20.5452
 CONDUCTIVITY     16.3387  16.3528  16.3671  16.3818  16.3967  16.2868  16.2965  16.3066
 PRANDTL NUMBER    0.6866   0.6862   0.6858   0.6854   0.6850   0.6928   0.6923   0.6918

 MOLE FRACTIONS

 *H               0.96062  0.96156  0.96249  0.96339  0.96426  0.94489  0.94623  0.94754
 *H2              0.03938  0.03843  0.03751  0.03661  0.03574  0.05511  0.05377  0.05246

  * THERMODYNAMIC PROPERTIES FITTED TO 20000.K

 NOTE. WEIGHT FRACTION OF FUEL IN TOTAL FUELS AND OF OXIDANT IN TOTAL OXIDANTS









               THERMODYNAMIC EQUILIBRIUM PROPERTIES AT ASSIGNED

                           TEMPERATURE AND PRESSURE

 CASE =                

             REACTANT                    WT FRACTION      ENERGY      TEMP
                                          (SEE NOTE)     KJ/KG-MOL      K  
             H2                           1.0000000         0.000      0.000

 O/F=    0.00000  %FUEL=100.000000  R,EQ.RATIO= 0.000000  PHI,EQ.RATIO= 0.000000

 THERMODYNAMIC PROPERTIES

 P, BAR           0.74000  0.74000  0.74000  0.74000  0.74000  0.74000  0.74000  0.74000
 T, K             4530.00  4540.00  4550.00  4560.00  4570.00  4580.00  4590.00  4600.00
 RHO, KG/CU M    2.0817-3 2.0746-3 2.0677-3 2.0608-3 2.0541-3 2.0474-3 2.0408-3 2.0343-3
 H, KJ/KG        281132.8 281855.8 282566.5 283265.2 283952.1 284627.5 285291.7 285944.9
 U, KJ/KG        245584.3 246186.8 246777.7 247357.5 247926.2 248484.3 249031.9 249569.1
 G, KJ/KG       -479425.2-481105.0-482786.3-484469.1-486153.5-487839.4-489526.7-491215.5
 S, KJ/(KG)(K)   167.8936 168.0530 168.2094 168.3628 168.5133 168.6609 168.8058 168.9479

 M, (1/n)           1.060    1.058    1.057    1.056    1.055    1.054    1.053    1.051
 (dLV/dLP)t      -1.04395 -1.04304 -1.04215 -1.04128 -1.04042 -1.03958 -1.03876 -1.03795
 (dLV/dLT)p        1.5416   1.5293   1.5172   1.5054   1.4938   1.4825   1.4714   1.4606
 Cp, KJ/(KG)(K)   72.9199  71.6794  70.4650  69.2764  68.1133  66.9754  65.8625  64.7742
 GAMMAs            1.2687   1.2711   1.2735   1.2760   1.2785   1.2810   1.2836   1.2862
 SON VEL,M/SEC     6715.7   6733.4   6751.2   6768.9   6786.7   6804.4   6822.2   6840.0

 TRANSPORT PROPERTIES (GASES ONLY)
   CONDUCTIVITY IN UNITS OF MILLIWATTS/(CM)(K)

 VISC,MILLIPOISE  0.54898  0.54890  0.54884  0.54880  0.54877  0.54876  0.54877  0.54880

  WITH EQUILIBRIUM REACTIONS

 Cp, KJ/(KG)(K)   72.9199  71.6794  70.4650  69.2764  68.1133  66.9754  65.8625  64.7742
 CONDUCTIVITY     66.8006  65.6498  64.5241  63.4230  62.3463  61.2937  60.2648  59.2592
 PRANDTL NUMBER    0.5993   0.5993   0.5994   0.5994   0.5995   0.5996   0.5997   0.5999

  WITH FROZEN REACTIONS

 Cp, KJ/(KG)(K)   20.5478  20.5504  20.5528  20.5552  20.5575  20.5597  20.5619  20.5640
 CONDUCTIVITY     16.3170  16.3277  16.3388  16.3502  16.3620  16.3741  16.3865  16.3992
 PRANDTL NUMBER    0.6913   0.6909   0.6904   0.6899   0.6895   0.6890   0.6886   0.6882

 MOLE FRACTIONS

 *H               0.94881  0.95005  0.95126  0.95244  0.95358  0.95470  0.95579  0.95684
 *H2              0.05119  0.04995  0.04874  0.04756  0.04642  0.04530  0.04421  0.04315

  * THERMODYNAMIC PROPERTIES FITTED TO 20000.K

 NOTE. WEIGHT FRACTION OF FUEL IN TOTAL FUELS AND OF OXIDANT IN TOTAL OXIDANTS









               THERMODYNAMIC EQUILIBRIUM PROPERTIES AT ASSIGNED

                           TEMPERATURE AND PRESSURE

 CASE =                

             REACTANT                    WT FRACTION      ENERGY      TEMP
                                          (SEE NOTE)     KJ/KG-MOL      K  
             H2                           1.0000000         0.000      0.000

 O/F=    0.00000  %FUEL=100.000000  R,EQ.RATIO= 0.000000  PHI,EQ.RATIO= 0.000000

 THERMODYNAMIC PROPERTIES

 P, BAR           0.74000  0.74000  0.74000  0.74000  0.82500  0.82500  0.82500  0.82500
 T, K             4610.00  4620.00  4630.00  4640.00  4500.00  4510.00  4520.00  4530.00
 RHO, KG/CU M    2.0279-3 2.0216-3 2.0153-3 2.0091-3 2.3574-3 2.3489-3 2.3406-3 2.3324-3
 H, KJ/KG        286587.3 287219.1 287840.7 288452.3 276582.4 277387.2 278178.3 278956.1
 U, KJ/KG        250096.4 250613.9 251121.8 251620.3 241586.5 242265.1 242930.9 243584.2
 G, KJ/KG       -492905.7-494597.2-496290.1-497984.4-470580.4-472241.6-473904.6-475569.4
 S, KJ/(KG)(K)   169.0874 169.2243 169.3587 169.4907 166.0362 166.2148 166.3900 166.5619

 M, (1/n)           1.050    1.049    1.048    1.047    1.069    1.068    1.066    1.065
 (dLV/dLP)t      -1.03715 -1.03638 -1.03561 -1.03487 -1.05069 -1.04968 -1.04869 -1.04771
 (dLV/dLT)p        1.4500   1.4396   1.4295   1.4196   1.6287   1.6148   1.6013   1.5879
 Cp, KJ/(KG)(K)   63.7102  62.6702  61.6537  60.6606  81.1730  79.7936  78.4400  77.1122
 GAMMAs            1.2888   1.2914   1.2941   1.2968   1.2554   1.2576   1.2598   1.2620
 SON VEL,M/SEC     6857.7   6875.5   6893.3   6911.1   6628.3   6646.0   6663.6   6681.3

 TRANSPORT PROPERTIES (GASES ONLY)
   CONDUCTIVITY IN UNITS OF MILLIWATTS/(CM)(K)

 VISC,MILLIPOISE  0.54885  0.54891  0.54899  0.54909  0.55405  0.55384  0.55365  0.55348

  WITH EQUILIBRIUM REACTIONS

 Cp, KJ/(KG)(K)   63.7102  62.6702  61.6537  60.6606  81.1730  79.7936  78.4400  77.1122
 CONDUCTIVITY     58.2767  57.3168  56.3791  55.4634  75.0152  73.7186  72.4476  71.2021
 PRANDTL NUMBER    0.6000   0.6002   0.6004   0.6005   0.5995   0.5995   0.5994   0.5994

  WITH FROZEN REACTIONS

 Cp, KJ/(KG)(K)   20.5660  20.5679  20.5698  20.5717  20.5318  20.5348  20.5378  20.5406
 CONDUCTIVITY     16.4122  16.4255  16.4391  16.4530  16.3715  16.3799  16.3886  16.3976
 PRANDTL NUMBER    0.6878   0.6873   0.6869   0.6865   0.6948   0.6943   0.6938   0.6933

 MOLE FRACTIONS

 *H               0.95787  0.95888  0.95986  0.96081  0.93929  0.94075  0.94217  0.94356
 *H2              0.04212  0.04112  0.04014  0.03919  0.06071  0.05925  0.05782  0.05644

  * THERMODYNAMIC PROPERTIES FITTED TO 20000.K

 NOTE. WEIGHT FRACTION OF FUEL IN TOTAL FUELS AND OF OXIDANT IN TOTAL OXIDANTS









               THERMODYNAMIC EQUILIBRIUM PROPERTIES AT ASSIGNED

                           TEMPERATURE AND PRESSURE

 CASE =                

             REACTANT                    WT FRACTION      ENERGY      TEMP
                                          (SEE NOTE)     KJ/KG-MOL      K  
             H2                           1.0000000         0.000      0.000

 O/F=    0.00000  %FUEL=100.000000  R,EQ.RATIO= 0.000000  PHI,EQ.RATIO= 0.000000

 THERMODYNAMIC PROPERTIES

 P, BAR           0.82500  0.82500  0.82500  0.82500  0.82500  0.82500  0.82500  0.82500
 T, K             4540.00  4550.00  4560.00  4570.00  4580.00  4590.00  4600.00  4610.00
 RHO, KG/CU M    2.3242-3 2.3162-3 2.3083-3 2.3005-3 2.2929-3 2.2853-3 2.2778-3 2.2704-3
 H, KJ/KG        279720.6 280472.3 281211.4 281938.1 282652.6 283355.3 284046.3 284725.9
 U, KJ/KG        244225.3 244854.3 245471.5 246077.1 246671.4 247254.6 247827.0 248388.8
 G, KJ/KG       -477235.9-478904.0-480573.8-482245.1-483918.1-485592.6-487268.6-488946.1
 S, KJ/(KG)(K)   166.7305 166.8959 167.0582 167.2173 167.3735 167.5268 167.6772 167.8247

 M, (1/n)           1.063    1.062    1.061    1.060    1.058    1.057    1.056    1.055
 (dLV/dLP)t      -1.04676 -1.04581 -1.04489 -1.04398 -1.04309 -1.04221 -1.04135 -1.04051
 (dLV/dLT)p        1.5749   1.5621   1.5496   1.5373   1.5252   1.5135   1.5019   1.4906
 Cp, KJ/(KG)(K)   75.8101  74.5336  73.2825  72.0567  70.8559  69.6800  68.5287  67.4018
 GAMMAs            1.2643   1.2666   1.2689   1.2713   1.2736   1.2761   1.2785   1.2810
 SON VEL,M/SEC     6699.0   6716.6   6734.3   6751.9   6769.6   6787.2   6804.9   6822.5

 TRANSPORT PROPERTIES (GASES ONLY)
   CONDUCTIVITY IN UNITS OF MILLIWATTS/(CM)(K)

 VISC,MILLIPOISE  0.55333  0.55320  0.55309  0.55300  0.55292  0.55287  0.55283  0.55281

  WITH EQUILIBRIUM REACTIONS

 Cp, KJ/(KG)(K)   75.8101  74.5336  73.2825  72.0567  70.8559  69.6800  68.5287  67.4018
 CONDUCTIVITY     69.9819  68.7867  67.6163  66.4705  65.3490  64.2516  63.1778  62.1275
 PRANDTL NUMBER    0.5994   0.5994   0.5994   0.5995   0.5995   0.5996   0.5997   0.5997

  WITH FROZEN REACTIONS

 Cp, KJ/(KG)(K)   20.5433  20.5460  20.5486  20.5511  20.5535  20.5559  20.5581  20.5603
 CONDUCTIVITY     16.4070  16.4168  16.4269  16.4374  16.4482  16.4594  16.4708  16.4826
 PRANDTL NUMBER    0.6928   0.6923   0.6919   0.6914   0.6909   0.6905   0.6900   0.6896

 MOLE FRACTIONS

 *H               0.94492  0.94624  0.94752  0.94877  0.94999  0.95118  0.95234  0.95347
 *H2              0.05508  0.05376  0.05248  0.05123  0.05001  0.04882  0.04766  0.04653

  * THERMODYNAMIC PROPERTIES FITTED TO 20000.K

 NOTE. WEIGHT FRACTION OF FUEL IN TOTAL FUELS AND OF OXIDANT IN TOTAL OXIDANTS









               THERMODYNAMIC EQUILIBRIUM PROPERTIES AT ASSIGNED

                           TEMPERATURE AND PRESSURE

 CASE =                

             REACTANT                    WT FRACTION      ENERGY      TEMP
                                          (SEE NOTE)     KJ/KG-MOL      K  
             H2                           1.0000000         0.000      0.000

 O/F=    0.00000  %FUEL=100.000000  R,EQ.RATIO= 0.000000  PHI,EQ.RATIO= 0.000000

 THERMODYNAMIC PROPERTIES

 P, BAR           0.82500  0.82500  0.82500  0.91000  0.91000  0.91000  0.91000  0.91000
 T, K             4620.00  4630.00  4640.00  4500.00  4510.00  4520.00  4530.00  4540.00
 RHO, KG/CU M    2.2631-3 2.2559-3 2.2488-3 2.6137-3 2.6041-3 2.5946-3 2.5852-3 2.5759-3
 H, KJ/KG        285394.4 286052.0 286698.9 274352.7 275198.0 276029.1 276846.3 277649.8
 U, KJ/KG        248940.1 249481.3 250012.6 239536.6 240252.8 240955.7 241645.7 242322.9
 G, KJ/KG       -490625.1-492305.5-493987.3-467157.3-468806.1-470456.7-472109.1-473763.3
 S, KJ/(KG)(K)   167.9696 168.1118 168.2513 164.7800 164.9676 165.1517 165.3323 165.5095

 M, (1/n)           1.054    1.053    1.052    1.075    1.073    1.072    1.070    1.069
 (dLV/dLP)t      -1.03968 -1.03887 -1.03807 -1.05437 -1.05332 -1.05229 -1.05127 -1.05027
 (dLV/dLT)p        1.4796   1.4688   1.4582   1.6744   1.6599   1.6458   1.6318   1.6181
 Cp, KJ/(KG)(K)   66.2990  65.2200  64.1645  85.2420  83.8140  82.4108  81.0323  79.6787
 GAMMAs            1.2835   1.2860   1.2885   1.2501   1.2522   1.2543   1.2564   1.2585
 SON VEL,M/SEC     6840.2   6857.8   6875.5   6597.4   6615.0   6632.7   6650.3   6667.9

 TRANSPORT PROPERTIES (GASES ONLY)
   CONDUCTIVITY IN UNITS OF MILLIWATTS/(CM)(K)

 VISC,MILLIPOISE  0.55281  0.55283  0.55286  0.55856  0.55829  0.55804  0.55781  0.55759

  WITH EQUILIBRIUM REACTIONS

 Cp, KJ/(KG)(K)   66.2990  65.2200  64.1645  85.2420  83.8140  82.4108  81.0323  79.6787
 CONDUCTIVITY     61.1003  60.0959  59.1140  79.3629  78.0069  76.6760  75.3701  74.0892
 PRANDTL NUMBER    0.5998   0.6000   0.6001   0.5999   0.5998   0.5998   0.5997   0.5997

  WITH FROZEN REACTIONS

 Cp, KJ/(KG)(K)   20.5625  20.5645  20.5665  20.5241  20.5274  20.5305  20.5336  20.5365
 CONDUCTIVITY     16.4947  16.5071  16.5199  16.4534  16.4605  16.4679  16.4757  16.4839
 PRANDTL NUMBER    0.6891   0.6887   0.6883   0.6968   0.6962   0.6957   0.6952   0.6947

 MOLE FRACTIONS

 *H               0.95457  0.95564  0.95668  0.93381  0.93539  0.93693  0.93842  0.93989
 *H2              0.04543  0.04436  0.04332  0.06619  0.06461  0.06307  0.06157  0.06011

  * THERMODYNAMIC PROPERTIES FITTED TO 20000.K

 NOTE. WEIGHT FRACTION OF FUEL IN TOTAL FUELS AND OF OXIDANT IN TOTAL OXIDANTS









               THERMODYNAMIC EQUILIBRIUM PROPERTIES AT ASSIGNED

                           TEMPERATURE AND PRESSURE

 CASE =                

             REACTANT                    WT FRACTION      ENERGY      TEMP
                                          (SEE NOTE)     KJ/KG-MOL      K  
             H2                           1.0000000         0.000      0.000

 O/F=    0.00000  %FUEL=100.000000  R,EQ.RATIO= 0.000000  PHI,EQ.RATIO= 0.000000

 THERMODYNAMIC PROPERTIES

 P, BAR           0.91000  0.91000  0.91000  0.91000  0.91000  0.91000  0.91000  0.91000
 T, K             4550.00  4560.00  4570.00  4580.00  4590.00  4600.00  4610.00  4620.00
 RHO, KG/CU M    2.5668-3 2.5578-3 2.5490-3 2.5402-3 2.5316-3 2.5231-3 2.5147-3 2.5064-3
 H, KJ/KG        278440.0 279216.9 279981.0 280732.3 281471.3 282198.0 282912.9 283616.0
 U, KJ/KG        242987.5 243639.9 244280.2 244908.6 245525.5 246131.0 246725.4 247308.9
 G, KJ/KG       -475419.3-477077.0-478736.3-480397.4-482060.0-483724.3-485390.1-487057.5
 S, KJ/(KG)(K)   165.6833 165.8539 166.0213 166.1855 166.3467 166.5049 166.6601 166.8124

 M, (1/n)           1.067    1.066    1.064    1.063    1.062    1.060    1.059    1.058
 (dLV/dLP)t      -1.04929 -1.04832 -1.04737 -1.04643 -1.04551 -1.04460 -1.04371 -1.04284
 (dLV/dLT)p        1.6047   1.5915   1.5786   1.5660   1.5535   1.5414   1.5295   1.5178
 Cp, KJ/(KG)(K)   78.3500  77.0459  75.7666  74.5119  73.2816  72.0757  70.8939  69.7361
 GAMMAs            1.2607   1.2629   1.2652   1.2674   1.2697   1.2720   1.2744   1.2767
 SON VEL,M/SEC     6685.5   6703.1   6720.6   6738.2   6755.8   6773.3   6790.9   6808.4

 TRANSPORT PROPERTIES (GASES ONLY)
   CONDUCTIVITY IN UNITS OF MILLIWATTS/(CM)(K)

 VISC,MILLIPOISE  0.55740  0.55723  0.55708  0.55694  0.55682  0.55673  0.55665  0.55659

  WITH EQUILIBRIUM REACTIONS

 Cp, KJ/(KG)(K)   78.3500  77.0459  75.7666  74.5119  73.2816  72.0757  70.8939  69.7361
 CONDUCTIVITY     72.8332  71.6018  70.3948  69.2122  68.0536  66.9189  65.8078  64.7200
 PRANDTL NUMBER    0.5996   0.5996   0.5996   0.5996   0.5996   0.5996   0.5997   0.5997

  WITH FROZEN REACTIONS

 Cp, KJ/(KG)(K)   20.5394  20.5422  20.5448  20.5475  20.5500  20.5524  20.5548  20.5571
 CONDUCTIVITY     16.4925  16.5014  16.5107  16.5203  16.5303  16.5406  16.5512  16.5622
 PRANDTL NUMBER    0.6942   0.6937   0.6932   0.6927   0.6922   0.6918   0.6913   0.6908

 MOLE FRACTIONS

 *H               0.94131  0.94270  0.94406  0.94538  0.94666  0.94792  0.94914  0.95033
 *H2              0.05869  0.05730  0.05594  0.05462  0.05334  0.05208  0.05086  0.04967

  * THERMODYNAMIC PROPERTIES FITTED TO 20000.K

 NOTE. WEIGHT FRACTION OF FUEL IN TOTAL FUELS AND OF OXIDANT IN TOTAL OXIDANTS









               THERMODYNAMIC EQUILIBRIUM PROPERTIES AT ASSIGNED

                           TEMPERATURE AND PRESSURE

 CASE =                

             REACTANT                    WT FRACTION      ENERGY      TEMP
                                          (SEE NOTE)     KJ/KG-MOL      K  
             H2                           1.0000000         0.000      0.000

 O/F=    0.00000  %FUEL=100.000000  R,EQ.RATIO= 0.000000  PHI,EQ.RATIO= 0.000000

 THERMODYNAMIC PROPERTIES

 P, BAR           0.91000  0.91000   1.0000   1.0000   1.0000   1.0000   1.0000   1.0000
 T, K             4630.00  4640.00  4500.00  4510.00  4520.00  4530.00  4540.00  4550.00
 RHO, KG/CU M    2.4982-3 2.4901-3 2.8875-3 2.8765-3 2.8657-3 2.8551-3 2.8446-3 2.8343-3
 H, KJ/KG        284307.7 284988.1 272069.9 272955.0 273825.6 274681.7 275523.8 276352.0
 U, KJ/KG        247881.6 248444.0 237437.9 238191.1 238930.6 239656.8 240369.8 241069.8
 G, KJ/KG       -488726.4-490396.7-463882.4-465518.8-467157.2-468797.5-470439.7-472083.7
 S, KJ/(KG)(K)   166.9620 167.1088 163.5450 163.7414 163.9342 164.1235 164.3091 164.4914

 M, (1/n)           1.057    1.056    1.080    1.079    1.077    1.075    1.074    1.072
 (dLV/dLP)t      -1.04198 -1.04114 -1.05805 -1.05697 -1.05590 -1.05484 -1.05380 -1.05278
 (dLV/dLT)p        1.5063   1.4951   1.7200   1.7050   1.6903   1.6758   1.6615   1.6475
 Cp, KJ/(KG)(K)   68.6020  67.4915  89.2460  87.7771  86.3315  84.9094  83.5110  82.1363
 GAMMAs            1.2791   1.2816   1.2454   1.2474   1.2494   1.2514   1.2534   1.2555
 SON VEL,M/SEC     6826.0   6843.6   6567.5   6585.1   6602.7   6620.3   6637.9   6655.5

 TRANSPORT PROPERTIES (GASES ONLY)
   CONDUCTIVITY IN UNITS OF MILLIWATTS/(CM)(K)

 VISC,MILLIPOISE  0.55654  0.55652  0.56314  0.56281  0.56250  0.56221  0.56194  0.56168

  WITH EQUILIBRIUM REACTIONS

 Cp, KJ/(KG)(K)   68.6020  67.4915  89.2460  87.7771  86.3315  84.9094  83.5110  82.1363
 CONDUCTIVITY     63.6553  62.6134  83.7018  82.2923  80.9070  79.5462  78.2097  76.8975
 PRANDTL NUMBER    0.5998   0.5999   0.6004   0.6003   0.6002   0.6001   0.6000   0.6000

  WITH FROZEN REACTIONS

 Cp, KJ/(KG)(K)   20.5594  20.5615  20.5163  20.5197  20.5231  20.5264  20.5295  20.5326
 CONDUCTIVITY     16.5735  16.5851  16.5372  16.5430  16.5492  16.5558  16.5628  16.5702
 PRANDTL NUMBER    0.6904   0.6899   0.6986   0.6981   0.6976   0.6970   0.6965   0.6960

 MOLE FRACTIONS

 *H               0.95149  0.95262  0.92814  0.92984  0.93149  0.93310  0.93467  0.93621
 *H2              0.04851  0.04738  0.07186  0.07016  0.06851  0.06690  0.06533  0.06379

  * THERMODYNAMIC PROPERTIES FITTED TO 20000.K

 NOTE. WEIGHT FRACTION OF FUEL IN TOTAL FUELS AND OF OXIDANT IN TOTAL OXIDANTS









               THERMODYNAMIC EQUILIBRIUM PROPERTIES AT ASSIGNED

                           TEMPERATURE AND PRESSURE

 CASE =                

             REACTANT                    WT FRACTION      ENERGY      TEMP
                                          (SEE NOTE)     KJ/KG-MOL      K  
             H2                           1.0000000         0.000      0.000

 O/F=    0.00000  %FUEL=100.000000  R,EQ.RATIO= 0.000000  PHI,EQ.RATIO= 0.000000

 THERMODYNAMIC PROPERTIES

 P, BAR            1.0000   1.0000   1.0000   1.0000   1.0000   1.0000   1.0000   1.0000
 T, K             4560.00  4570.00  4580.00  4590.00  4600.00  4610.00  4620.00  4630.00
 RHO, KG/CU M    2.8241-3 2.8140-3 2.8041-3 2.7944-3 2.7847-3 2.7752-3 2.7658-3 2.7566-3
 H, KJ/KG        277166.6 277967.8 278755.9 279531.0 280293.5 281043.5 281781.3 282507.2
 U, KJ/KG        241757.1 242431.8 243094.3 243744.8 244383.4 245010.4 245626.0 246230.4
 G, KJ/KG       -473729.5-475377.1-477026.4-478677.4-480330.1-481984.5-483640.4-485298.0
 S, KJ/(KG)(K)   164.6702 164.8457 165.0180 165.1870 165.3530 165.5158 165.6757 165.8326

 M, (1/n)           1.071    1.069    1.068    1.066    1.065    1.064    1.062    1.061
 (dLV/dLP)t      -1.05177 -1.05077 -1.04980 -1.04883 -1.04789 -1.04695 -1.04604 -1.04514
 (dLV/dLT)p        1.6338   1.6202   1.6070   1.5940   1.5812   1.5687   1.5564   1.5444
 Cp, KJ/(KG)(K)   80.7854  79.4583  78.1551  76.8757  75.6201  74.3882  73.1798  71.9948
 GAMMAs            1.2575   1.2597   1.2618   1.2640   1.2662   1.2684   1.2707   1.2730
 SON VEL,M/SEC     6673.0   6690.5   6708.0   6725.6   6743.0   6760.5   6778.0   6795.5

 TRANSPORT PROPERTIES (GASES ONLY)
   CONDUCTIVITY IN UNITS OF MILLIWATTS/(CM)(K)

 VISC,MILLIPOISE  0.56145  0.56124  0.56105  0.56087  0.56071  0.56058  0.56046  0.56036

  WITH EQUILIBRIUM REACTIONS

 Cp, KJ/(KG)(K)   80.7854  79.4583  78.1551  76.8757  75.6201  74.3882  73.1798  71.9948
 CONDUCTIVITY     75.6095  74.3457  73.1059  71.8900  70.6979  69.5293  68.3840  67.2619
 PRANDTL NUMBER    0.5999   0.5998   0.5998   0.5998   0.5998   0.5998   0.5998   0.5998

  WITH FROZEN REACTIONS

 Cp, KJ/(KG)(K)   20.5356  20.5384  20.5412  20.5440  20.5466  20.5491  20.5516  20.5540
 CONDUCTIVITY     16.5779  16.5860  16.5945  16.6033  16.6124  16.6219  16.6318  16.6419
 PRANDTL NUMBER    0.6955   0.6950   0.6945   0.6940   0.6935   0.6930   0.6925   0.6921

 MOLE FRACTIONS

 *H               0.93770  0.93916  0.94058  0.94197  0.94332  0.94464  0.94592  0.94718
 *H2              0.06230  0.06084  0.05942  0.05803  0.05668  0.05536  0.05408  0.05282

  * THERMODYNAMIC PROPERTIES FITTED TO 20000.K

 NOTE. WEIGHT FRACTION OF FUEL IN TOTAL FUELS AND OF OXIDANT IN TOTAL OXIDANTS









               THERMODYNAMIC EQUILIBRIUM PROPERTIES AT ASSIGNED

                           TEMPERATURE AND PRESSURE

 CASE =                

             REACTANT                    WT FRACTION      ENERGY      TEMP
                                          (SEE NOTE)     KJ/KG-MOL      K  
             H2                           1.0000000         0.000      0.000

 O/F=    0.00000  %FUEL=100.000000  R,EQ.RATIO= 0.000000  PHI,EQ.RATIO= 0.000000

 THERMODYNAMIC PROPERTIES

 P, BAR            1.0000   1.1000   1.1000   1.1000   1.1000   1.1000   1.1000   1.1000
 T, K             4640.00  4500.00  4510.00  4520.00  4530.00  4540.00  4550.00  4560.00
 RHO, KG/CU M    2.7475-3 3.1945-3 3.1820-3 3.1697-3 3.1576-3 3.1457-3 3.1340-3 3.1224-3
 H, KJ/KG        283221.3 269622.2 270548.3 271459.4 272355.8 273237.8 274105.4 274959.0
 U, KJ/KG        246823.9 235187.5 235978.8 236756.1 237519.6 238269.6 239006.3 239729.8
 G, KJ/KG       -486957.1-460590.9-462214.6-463840.4-465468.2-467097.9-468729.5-470363.1
 S, KJ/(KG)(K)   165.9867 162.2696 162.4751 162.6770 162.8751 163.0695 163.2604 163.4478

 M, (1/n)           1.060    1.087    1.085    1.083    1.081    1.079    1.078    1.076
 (dLV/dLP)t      -1.04425 -1.06188 -1.06077 -1.05966 -1.05857 -1.05750 -1.05644 -1.05539
 (dLV/dLT)p        1.5326   1.7676   1.7521   1.7368   1.7218   1.7070   1.6924   1.6781
 Cp, KJ/(KG)(K)   70.8331  93.3593  91.8558  90.3738  88.9137  87.4756  86.0599  84.6666
 GAMMAs            1.2753   1.2410   1.2428   1.2447   1.2466   1.2485   1.2505   1.2525
 SON VEL,M/SEC     6813.0   6537.1   6554.7   6572.3   6589.9   6607.5   6625.0   6642.5

 TRANSPORT PROPERTIES (GASES ONLY)
   CONDUCTIVITY IN UNITS OF MILLIWATTS/(CM)(K)

 VISC,MILLIPOISE  0.56027  0.56800  0.56761  0.56725  0.56690  0.56656  0.56625  0.56596

  WITH EQUILIBRIUM REACTIONS

 Cp, KJ/(KG)(K)   70.8331  93.3593  91.8558  90.3738  88.9137  87.4756  86.0599  84.6666
 CONDUCTIVITY     66.1627  88.2277  86.7686  85.3328  83.9203  82.5312  81.1656  79.8236
 PRANDTL NUMBER    0.5998   0.6010   0.6009   0.6008   0.6006   0.6005   0.6004   0.6003

  WITH FROZEN REACTIONS

 Cp, KJ/(KG)(K)   20.5563  20.5079  20.5115  20.5151  20.5186  20.5220  20.5253  20.5284
 CONDUCTIVITY     16.6524  16.6269  16.6315  16.6365  16.6419  16.6476  16.6537  16.6603
 PRANDTL NUMBER    0.6916   0.7006   0.7000   0.6995   0.6990   0.6984   0.6979   0.6974

 MOLE FRACTIONS

 *H               0.94840  0.92200  0.92382  0.92559  0.92732  0.92901  0.93066  0.93226
 *H2              0.05160  0.07800  0.07618  0.07441  0.07268  0.07099  0.06934  0.06774

  * THERMODYNAMIC PROPERTIES FITTED TO 20000.K

 NOTE. WEIGHT FRACTION OF FUEL IN TOTAL FUELS AND OF OXIDANT IN TOTAL OXIDANTS









               THERMODYNAMIC EQUILIBRIUM PROPERTIES AT ASSIGNED

                           TEMPERATURE AND PRESSURE

 CASE =                

             REACTANT                    WT FRACTION      ENERGY      TEMP
                                          (SEE NOTE)     KJ/KG-MOL      K  
             H2                           1.0000000         0.000      0.000

 O/F=    0.00000  %FUEL=100.000000  R,EQ.RATIO= 0.000000  PHI,EQ.RATIO= 0.000000

 THERMODYNAMIC PROPERTIES

 P, BAR            1.1000   1.1000   1.1000   1.1000   1.1000   1.1000   1.1000   1.1000
 T, K             4570.00  4580.00  4590.00  4600.00  4610.00  4620.00  4630.00  4640.00
 RHO, KG/CU M    3.1110-3 3.0997-3 3.0887-3 3.0777-3 3.0669-3 3.0563-3 3.0458-3 3.0354-3
 H, KJ/KG        275798.8 276625.0 277437.9 278237.6 279024.4 279798.5 280560.2 281309.6
 U, KJ/KG        240440.4 241138.3 241823.7 242496.8 243157.9 243807.2 244444.9 245071.1
 G, KJ/KG       -471998.5-473635.7-475274.7-476915.5-478558.0-480202.2-481848.0-483495.5
 S, KJ/(KG)(K)   163.6318 163.8124 163.9897 164.1637 164.3346 164.5023 164.6670 164.8287

 M, (1/n)           1.075    1.073    1.072    1.070    1.069    1.067    1.066    1.065
 (dLV/dLP)t      -1.05436 -1.05334 -1.05234 -1.05135 -1.05038 -1.04942 -1.04848 -1.04755
 (dLV/dLT)p        1.6640   1.6502   1.6366   1.6233   1.6102   1.5973   1.5847   1.5723
 Cp, KJ/(KG)(K)   83.2961  81.9483  80.6233  79.3212  78.0421  76.7858  75.5523  74.3417
 GAMMAs            1.2545   1.2565   1.2586   1.2607   1.2628   1.2649   1.2671   1.2693
 SON VEL,M/SEC     6660.0   6677.5   6695.0   6712.4   6729.9   6747.3   6764.7   6782.1

 TRANSPORT PROPERTIES (GASES ONLY)
   CONDUCTIVITY IN UNITS OF MILLIWATTS/(CM)(K)

 VISC,MILLIPOISE  0.56569  0.56544  0.56520  0.56499  0.56479  0.56461  0.56445  0.56431

  WITH EQUILIBRIUM REACTIONS

 Cp, KJ/(KG)(K)   83.2961  81.9483  80.6233  79.3212  78.0421  76.7858  75.5523  74.3417
 CONDUCTIVITY     78.5051  77.2101  75.9385  74.6903  73.4654  72.2636  71.0848  69.9288
 PRANDTL NUMBER    0.6002   0.6001   0.6001   0.6000   0.6000   0.5999   0.5999   0.5999

  WITH FROZEN REACTIONS

 Cp, KJ/(KG)(K)   20.5315  20.5345  20.5374  20.5403  20.5430  20.5457  20.5482  20.5507
 CONDUCTIVITY     16.6671  16.6744  16.6820  16.6899  16.6983  16.7069  16.7160  16.7253
 PRANDTL NUMBER    0.6968   0.6963   0.6958   0.6953   0.6948   0.6943   0.6939   0.6934

 MOLE FRACTIONS

 *H               0.93383  0.93536  0.93685  0.93831  0.93973  0.94112  0.94247  0.94379
 *H2              0.06617  0.06464  0.06314  0.06169  0.06027  0.05888  0.05753  0.05621

  * THERMODYNAMIC PROPERTIES FITTED TO 20000.K

 NOTE. WEIGHT FRACTION OF FUEL IN TOTAL FUELS AND OF OXIDANT IN TOTAL OXIDANTS









               THERMODYNAMIC EQUILIBRIUM PROPERTIES AT ASSIGNED

                           TEMPERATURE AND PRESSURE

 CASE =                

             REACTANT                    WT FRACTION      ENERGY      TEMP
                                          (SEE NOTE)     KJ/KG-MOL      K  
             H2                           1.0000000         0.000      0.000

 O/F=    0.00000  %FUEL=100.000000  R,EQ.RATIO= 0.000000  PHI,EQ.RATIO= 0.000000

 THERMODYNAMIC PROPERTIES

 P, BAR            1.2000   1.2000   1.2000   1.2000   1.2000   1.2000   1.2000   1.2000
 T, K             4500.00  4510.00  4520.00  4530.00  4540.00  4550.00  4560.00  4570.00
 RHO, KG/CU M    3.5042-3 3.4902-3 3.4764-3 3.4628-3 3.4494-3 3.4362-3 3.4232-3 3.4104-3
 H, KJ/KG        267262.5 268226.4 269175.0 270108.7 271027.6 271931.9 272821.8 273697.6
 U, KJ/KG        233018.1 233844.5 234656.7 235454.9 236239.2 237009.9 237767.2 238511.2
 G, KJ/KG       -457602.9-459214.8-460828.8-462444.9-464063.0-465683.2-467305.3-468929.3
 S, KJ/(KG)(K)   161.0812 161.2952 161.5053 161.7116 161.9142 162.1132 162.3086 162.5004

 M, (1/n)           1.093    1.091    1.089    1.087    1.085    1.083    1.082    1.080
 (dLV/dLP)t      -1.06547 -1.06433 -1.06320 -1.06208 -1.06098 -1.05989 -1.05881 -1.05775
 (dLV/dLT)p        1.8121   1.7962   1.7805   1.7650   1.7498   1.7348   1.7200   1.7054
 Cp, KJ/(KG)(K)   97.1505  95.6222  94.1135  92.6248  91.1565  89.7089  88.2823  86.8770
 GAMMAs            1.2372   1.2390   1.2407   1.2426   1.2444   1.2462   1.2481   1.2500
 SON VEL,M/SEC     6509.1   6526.7   6544.4   6561.9   6579.5   6597.1   6614.6   6632.0

 TRANSPORT PROPERTIES (GASES ONLY)
   CONDUCTIVITY IN UNITS OF MILLIWATTS/(CM)(K)

 VISC,MILLIPOISE  0.57265  0.57221  0.57179  0.57138  0.57100  0.57064  0.57029  0.56997

  WITH EQUILIBRIUM REACTIONS

 Cp, KJ/(KG)(K)   97.1505  95.6222  94.1135  92.6248  91.1565  89.7089  88.2823  86.8770
 CONDUCTIVITY     92.4670  90.9676  89.4901  88.0348  86.6018  85.1913  83.8034  82.4382
 PRANDTL NUMBER    0.6017   0.6015   0.6013   0.6012   0.6010   0.6009   0.6008   0.6007

  WITH FROZEN REACTIONS

 Cp, KJ/(KG)(K)   20.4997  20.5036  20.5074  20.5111  20.5147  20.5182  20.5216  20.5248
 CONDUCTIVITY     16.7134  16.7168  16.7207  16.7249  16.7295  16.7345  16.7399  16.7457
 PRANDTL NUMBER    0.7024   0.7018   0.7013   0.7007   0.7002   0.6997   0.6991   0.6986

 MOLE FRACTIONS

 *H               0.91601  0.91794  0.91983  0.92168  0.92347  0.92523  0.92695  0.92862
 *H2              0.08399  0.08205  0.08017  0.07832  0.07652  0.07477  0.07305  0.07138

  * THERMODYNAMIC PROPERTIES FITTED TO 20000.K

 NOTE. WEIGHT FRACTION OF FUEL IN TOTAL FUELS AND OF OXIDANT IN TOTAL OXIDANTS









               THERMODYNAMIC EQUILIBRIUM PROPERTIES AT ASSIGNED

                           TEMPERATURE AND PRESSURE

 CASE =                

             REACTANT                    WT FRACTION      ENERGY      TEMP
                                          (SEE NOTE)     KJ/KG-MOL      K  
             H2                           1.0000000         0.000      0.000

 O/F=    0.00000  %FUEL=100.000000  R,EQ.RATIO= 0.000000  PHI,EQ.RATIO= 0.000000

 THERMODYNAMIC PROPERTIES

 P, BAR            1.2000   1.2000   1.2000   1.2000   1.2000   1.2000   1.2000   1.3200
 T, K             4580.00  4590.00  4600.00  4610.00  4620.00  4630.00  4640.00  4500.00
 RHO, KG/CU M    3.3978-3 3.3853-3 3.3730-3 3.3609-3 3.3490-3 3.3372-3 3.3256-3 3.8795-3
 H, KJ/KG        274559.5 275407.6 276242.2 277063.4 277871.7 278667.0 279449.8 264539.8
 U, KJ/KG        239242.2 239960.3 240665.8 241358.9 242039.8 242708.7 243365.8 230514.9
 G, KJ/KG       -470555.3-472183.1-473812.7-475444.2-477077.4-478712.3-480349.0-454349.4
 S, KJ/(KG)(K)   162.6888 162.8738 163.0554 163.2338 163.4089 163.5809 163.7497 159.7532

 M, (1/n)           1.078    1.077    1.075    1.074    1.072    1.071    1.069    1.100
 (dLV/dLP)t      -1.05670 -1.05566 -1.05464 -1.05363 -1.05264 -1.05166 -1.05070 -1.06948
 (dLV/dLT)p        1.6911   1.6770   1.6632   1.6496   1.6362   1.6231   1.6101   1.8618
 Cp, KJ/(KG)(K)   85.4932  84.1311  82.7907  81.4723  80.1759  78.9015  77.6492 101.3150
 GAMMAs            1.2520   1.2539   1.2559   1.2579   1.2600   1.2620   1.2641   1.2334
 SON VEL,M/SEC     6649.5   6667.0   6684.4   6701.8   6719.2   6736.5   6753.9   6478.1

 TRANSPORT PROPERTIES (GASES ONLY)
   CONDUCTIVITY IN UNITS OF MILLIWATTS/(CM)(K)

 VISC,MILLIPOISE  0.56966  0.56937  0.56910  0.56885  0.56862  0.56840  0.56821  0.57795

  WITH EQUILIBRIUM REACTIONS

 Cp, KJ/(KG)(K)   85.4932  84.1311  82.7907  81.4723  80.1759  78.9015  77.6492 101.3150
 CONDUCTIVITY     81.0958  79.7761  78.4792  77.2051  75.9537  74.7250  73.5188  97.2072
 PRANDTL NUMBER    0.6005   0.6005   0.6004   0.6003   0.6002   0.6002   0.6001   0.6024

  WITH FROZEN REACTIONS

 Cp, KJ/(KG)(K)   20.5280  20.5311  20.5341  20.5370  20.5399  20.5426  20.5453  20.4904
 CONDUCTIVITY     16.7518  16.7583  16.7652  16.7724  16.7800  16.7879  16.7962  16.8130
 PRANDTL NUMBER    0.6981   0.6976   0.6970   0.6965   0.6960   0.6955   0.6950   0.7044

 MOLE FRACTIONS

 *H               0.93025  0.93185  0.93340  0.93492  0.93641  0.93785  0.93927  0.90902
 *H2              0.06975  0.06815  0.06659  0.06507  0.06359  0.06215  0.06073  0.09098

  * THERMODYNAMIC PROPERTIES FITTED TO 20000.K

 NOTE. WEIGHT FRACTION OF FUEL IN TOTAL FUELS AND OF OXIDANT IN TOTAL OXIDANTS









               THERMODYNAMIC EQUILIBRIUM PROPERTIES AT ASSIGNED

                           TEMPERATURE AND PRESSURE

 CASE =                

             REACTANT                    WT FRACTION      ENERGY      TEMP
                                          (SEE NOTE)     KJ/KG-MOL      K  
             H2                           1.0000000         0.000      0.000

 O/F=    0.00000  %FUEL=100.000000  R,EQ.RATIO= 0.000000  PHI,EQ.RATIO= 0.000000

 THERMODYNAMIC PROPERTIES

 P, BAR            1.3200   1.3200   1.3200   1.3200   1.3200   1.3200   1.3200   1.3200
 T, K             4510.00  4520.00  4530.00  4540.00  4550.00  4560.00  4570.00  4580.00
 RHO, KG/CU M    3.8636-3 3.8479-3 3.8324-3 3.8172-3 3.8022-3 3.7874-3 3.7728-3 3.7585-3
 H, KJ/KG        265545.2 266535.3 267510.1 268469.8 269414.8 270345.0 271260.8 272162.4
 U, KJ/KG        231380.0 232230.7 233067.1 233889.5 234697.9 235492.7 236273.9 237041.7
 G, KJ/KG       -455948.1-457548.9-459152.0-460757.2-462364.4-463973.8-465585.1-467198.5
 S, KJ/(KG)(K)   159.9763 160.1956 160.4110 160.6227 160.8306 161.0348 161.2354 161.4325

 M, (1/n)           1.098    1.096    1.094    1.092    1.090    1.088    1.086    1.084
 (dLV/dLP)t      -1.06832 -1.06717 -1.06602 -1.06489 -1.06377 -1.06267 -1.06157 -1.06049
 (dLV/dLT)p        1.8455   1.8294   1.8136   1.7979   1.7824   1.7672   1.7522   1.7374
 Cp, KJ/(KG)(K)   99.7680  98.2382  96.7260  95.2319  93.7565  92.3001  90.8632  89.4460
 GAMMAs            1.2350   1.2367   1.2384   1.2401   1.2419   1.2437   1.2455   1.2473
 SON VEL,M/SEC     6495.8   6513.4   6531.0   6548.6   6566.2   6583.7   6601.2   6618.7

 TRANSPORT PROPERTIES (GASES ONLY)
   CONDUCTIVITY IN UNITS OF MILLIWATTS/(CM)(K)

 VISC,MILLIPOISE  0.57746  0.57698  0.57652  0.57608  0.57566  0.57526  0.57488  0.57451

  WITH EQUILIBRIUM REACTIONS

 Cp, KJ/(KG)(K)   99.7680  98.2382  96.7260  95.2319  93.7565  92.3001  90.8632  89.4460
 CONDUCTIVITY     95.6700  94.1530  92.6565  91.1807  89.7261  88.2927  86.8808  85.4906
 PRANDTL NUMBER    0.6022   0.6020   0.6018   0.6017   0.6015   0.6014   0.6012   0.6011

  WITH FROZEN REACTIONS

 Cp, KJ/(KG)(K)   20.4945  20.4985  20.5025  20.5063  20.5100  20.5136  20.5171  20.5205
 CONDUCTIVITY     16.8152  16.8178  16.8208  16.8242  16.8280  16.8322  16.8367  16.8416
 PRANDTL NUMBER    0.7038   0.7033   0.7027   0.7022   0.7016   0.7011   0.7005   0.7000

 MOLE FRACTIONS

 *H               0.91108  0.91310  0.91507  0.91700  0.91888  0.92072  0.92251  0.92426
 *H2              0.08892  0.08690  0.08493  0.08300  0.08112  0.07928  0.07749  0.07573

  * THERMODYNAMIC PROPERTIES FITTED TO 20000.K

 NOTE. WEIGHT FRACTION OF FUEL IN TOTAL FUELS AND OF OXIDANT IN TOTAL OXIDANTS









               THERMODYNAMIC EQUILIBRIUM PROPERTIES AT ASSIGNED

                           TEMPERATURE AND PRESSURE

 CASE =                

             REACTANT                    WT FRACTION      ENERGY      TEMP
                                          (SEE NOTE)     KJ/KG-MOL      K  
             H2                           1.0000000         0.000      0.000

 O/F=    0.00000  %FUEL=100.000000  R,EQ.RATIO= 0.000000  PHI,EQ.RATIO= 0.000000

 THERMODYNAMIC PROPERTIES

 P, BAR            1.3200   1.3200   1.3200   1.3200   1.3200   1.3200   1.4800   1.4800
 T, K             4590.00  4600.00  4610.00  4620.00  4630.00  4640.00  4500.00  4510.00
 RHO, KG/CU M    3.7443-3 3.7304-3 3.7166-3 3.7030-3 3.6897-3 3.6765-3 4.3857-3 4.3671-3
 H, KJ/KG        273049.8 273923.4 274783.3 275629.8 276463.0 277283.2 261081.3 262136.3
 U, KJ/KG        237796.4 238538.1 239267.1 239983.4 240687.4 241379.2 227335.2 228246.5
 G, KJ/KG       -468813.7-470431.0-472050.1-473671.0-475293.8-476918.3-450472.4-452054.8
 S, KJ/(KG)(K)   161.6260 161.8162 162.0029 162.1863 162.3665 162.5434 158.1230 158.3572

 M, (1/n)           1.083    1.081    1.079    1.078    1.076    1.075    1.109    1.106
 (dLV/dLP)t      -1.05942 -1.05837 -1.05732 -1.05630 -1.05528 -1.05428 -1.07438 -1.07320
 (dLV/dLT)p        1.7228   1.7084   1.6943   1.6804   1.6667   1.6532   1.9225   1.9059
 Cp, KJ/(KG)(K)   88.0489  86.6721  85.3158  83.9803  82.6656  81.3720 106.2856 104.7290
 GAMMAs            1.2492   1.2511   1.2530   1.2549   1.2569   1.2589   1.2291   1.2307
 SON VEL,M/SEC     6636.1   6653.5   6670.9   6688.3   6705.6   6722.9   6440.3   6458.1

 TRANSPORT PROPERTIES (GASES ONLY)
   CONDUCTIVITY IN UNITS OF MILLIWATTS/(CM)(K)

 VISC,MILLIPOISE  0.57417  0.57384  0.57353  0.57324  0.57297  0.57272  0.58460  0.58404

  WITH EQUILIBRIUM REACTIONS

 Cp, KJ/(KG)(K)   88.0489  86.6721  85.3158  83.9803  82.6656  81.3720 106.2856 104.7290
 CONDUCTIVITY     84.1221  82.7755  81.4509  80.1482  78.8676  77.6089 102.9949 101.4225
 PRANDTL NUMBER    0.6010   0.6009   0.6007   0.6007   0.6006   0.6005   0.6033   0.6031

  WITH FROZEN REACTIONS

 Cp, KJ/(KG)(K)   20.5238  20.5270  20.5301  20.5331  20.5361  20.5389  20.4785  20.4829
 CONDUCTIVITY     16.8469  16.8525  16.8585  16.8649  16.8716  16.8787  16.9392  16.9401
 PRANDTL NUMBER    0.6995   0.6990   0.6984   0.6979   0.6974   0.6969   0.7067   0.7062

 MOLE FRACTIONS

 *H               0.92598  0.92765  0.92928  0.93087  0.93243  0.93395  0.90000  0.90223
 *H2              0.07402  0.07235  0.07072  0.06913  0.06757  0.06605  0.10000  0.09777

  * THERMODYNAMIC PROPERTIES FITTED TO 20000.K

 NOTE. WEIGHT FRACTION OF FUEL IN TOTAL FUELS AND OF OXIDANT IN TOTAL OXIDANTS









               THERMODYNAMIC EQUILIBRIUM PROPERTIES AT ASSIGNED

                           TEMPERATURE AND PRESSURE

 CASE =                

             REACTANT                    WT FRACTION      ENERGY      TEMP
                                          (SEE NOTE)     KJ/KG-MOL      K  
             H2                           1.0000000         0.000      0.000

 O/F=    0.00000  %FUEL=100.000000  R,EQ.RATIO= 0.000000  PHI,EQ.RATIO= 0.000000

 THERMODYNAMIC PROPERTIES

 P, BAR            1.4800   1.4800   1.4800   1.4800   1.4800   1.4800   1.4800   1.4800
 T, K             4520.00  4530.00  4540.00  4550.00  4560.00  4570.00  4580.00  4590.00
 RHO, KG/CU M    4.3488-3 4.3307-3 4.3130-3 4.2955-3 4.2782-3 4.2612-3 4.2444-3 4.2279-3
 H, KJ/KG        263175.9 264200.1 265209.1 266203.1 267182.1 268146.4 269096.2 270031.5
 U, KJ/KG        229143.4 230025.8 230894.0 231748.0 232588.1 233414.4 234227.1 235026.3
 G, KJ/KG       -453639.5-455226.6-456815.8-458407.3-460000.9-461596.7-463194.5-464794.4
 S, KJ/(KG)(K)   158.5875 158.8138 159.0363 159.2550 159.4700 159.6812 159.8888 160.0928

 M, (1/n)           1.104    1.102    1.100    1.098    1.096    1.094    1.092    1.090
 (dLV/dLP)t      -1.07202 -1.07086 -1.06970 -1.06856 -1.06742 -1.06630 -1.06518 -1.06408
 (dLV/dLT)p        1.8894   1.8731   1.8570   1.8411   1.8254   1.8099   1.7946   1.7795
 Cp, KJ/(KG)(K)  103.1861 101.6577 100.1443  98.6465  97.1650  95.7003  94.2529  92.8231
 GAMMAs            1.2322   1.2338   1.2354   1.2371   1.2388   1.2405   1.2422   1.2439
 SON VEL,M/SEC     6475.8   6493.5   6511.1   6528.7   6546.3   6563.8   6581.3   6598.7

 TRANSPORT PROPERTIES (GASES ONLY)
   CONDUCTIVITY IN UNITS OF MILLIWATTS/(CM)(K)

 VISC,MILLIPOISE  0.58351  0.58299  0.58249  0.58200  0.58154  0.58109  0.58066  0.58025

  WITH EQUILIBRIUM REACTIONS

 Cp, KJ/(KG)(K)  103.1861 101.6577 100.1443  98.6465  97.1650  95.7003  94.2529  92.8231
 CONDUCTIVITY     99.8678  98.3311  96.8129  95.3136  93.8336  92.3732  90.9327  89.5123
 PRANDTL NUMBER    0.6029   0.6027   0.6025   0.6024   0.6022   0.6020   0.6019   0.6017

  WITH FROZEN REACTIONS

 Cp, KJ/(KG)(K)   20.4872  20.4914  20.4955  20.4995  20.5034  20.5072  20.5108  20.5144
 CONDUCTIVITY     16.9413  16.9428  16.9448  16.9471  16.9498  16.9529  16.9563  16.9601
 PRANDTL NUMBER    0.7056   0.7051   0.7045   0.7040   0.7035   0.7029   0.7024   0.7018

 MOLE FRACTIONS

 *H               0.90441  0.90655  0.90863  0.91067  0.91266  0.91460  0.91650  0.91836
 *H2              0.09559  0.09345  0.09137  0.08933  0.08734  0.08540  0.08349  0.08164

  * THERMODYNAMIC PROPERTIES FITTED TO 20000.K

 NOTE. WEIGHT FRACTION OF FUEL IN TOTAL FUELS AND OF OXIDANT IN TOTAL OXIDANTS









               THERMODYNAMIC EQUILIBRIUM PROPERTIES AT ASSIGNED

                           TEMPERATURE AND PRESSURE

 CASE =                

             REACTANT                    WT FRACTION      ENERGY      TEMP
                                          (SEE NOTE)     KJ/KG-MOL      K  
             H2                           1.0000000         0.000      0.000

 O/F=    0.00000  %FUEL=100.000000  R,EQ.RATIO= 0.000000  PHI,EQ.RATIO= 0.000000

 THERMODYNAMIC PROPERTIES

 P, BAR            1.4800   1.4800   1.4800   1.4800   1.4800   1.6500   1.6500   1.6500
 T, K             4600.00  4610.00  4620.00  4630.00  4640.00  4500.00  4510.00  4520.00
 RHO, KG/CU M    4.2117-3 4.1956-3 4.1798-3 4.1642-3 4.1488-3 4.9304-3 4.9089-3 4.8877-3
 H, KJ/KG        270952.7 271859.8 272753.1 273632.8 274498.9 257604.1 258705.6 259791.7
 U, KJ/KG        235812.2 236584.9 237344.8 238091.9 238826.4 224138.3 225093.0 226033.2
 G, KJ/KG       -466396.4-468000.3-469606.2-471213.9-472823.6-446818.2-448384.8-449953.8
 S, KJ/(KG)(K)   160.2933 160.4903 160.6838 160.8740 161.0609 156.5383 156.7828 157.0233

 M, (1/n)           1.088    1.087    1.085    1.083    1.081    1.118    1.116    1.113
 (dLV/dLP)t      -1.06299 -1.06191 -1.06085 -1.05980 -1.05876 -1.07907 -1.07788 -1.07670
 (dLV/dLT)p        1.7646   1.7499   1.7354   1.7211   1.7071   1.9807   1.9639   1.9472
 Cp, KJ/(KG)(K)   91.4114  90.0182  88.6437  87.2883  85.9522 110.9286 109.3770 107.8355
 GAMMAs            1.2457   1.2475   1.2493   1.2511   1.2530   1.2254   1.2269   1.2283
 SON VEL,M/SEC     6616.2   6633.6   6650.9   6668.3   6685.6   6403.9   6421.7   6439.5

 TRANSPORT PROPERTIES (GASES ONLY)
   CONDUCTIVITY IN UNITS OF MILLIWATTS/(CM)(K)

 VISC,MILLIPOISE  0.57985  0.57948  0.57912  0.57878  0.57845  0.59117  0.59057  0.58999

  WITH EQUILIBRIUM REACTIONS

 Cp, KJ/(KG)(K)   91.4114  90.0182  88.6437  87.2883  85.9522 110.9286 109.3770 107.8355
 CONDUCTIVITY     88.1124  86.7330  85.3743  84.0365  82.7196 108.5502 106.9562 105.3768
 PRANDTL NUMBER    0.6016   0.6014   0.6013   0.6012   0.6011   0.6041   0.6039   0.6038

  WITH FROZEN REACTIONS

 Cp, KJ/(KG)(K)   20.5179  20.5212  20.5245  20.5277  20.5308  20.4665  20.4712  20.4758
 CONDUCTIVITY     16.9643  16.9689  16.9738  16.9790  16.9847  17.0659  17.0654  17.0653
 PRANDTL NUMBER    0.7013   0.7008   0.7003   0.6997   0.6992   0.7090   0.7084   0.7079

 MOLE FRACTIONS

 *H               0.92018  0.92195  0.92369  0.92538  0.92703  0.89079  0.89318  0.89552
 *H2              0.07982  0.07805  0.07631  0.07462  0.07297  0.10921  0.10682  0.10448

  * THERMODYNAMIC PROPERTIES FITTED TO 20000.K

 NOTE. WEIGHT FRACTION OF FUEL IN TOTAL FUELS AND OF OXIDANT IN TOTAL OXIDANTS









               THERMODYNAMIC EQUILIBRIUM PROPERTIES AT ASSIGNED

                           TEMPERATURE AND PRESSURE

 CASE =                

             REACTANT                    WT FRACTION      ENERGY      TEMP
                                          (SEE NOTE)     KJ/KG-MOL      K  
             H2                           1.0000000         0.000      0.000

 O/F=    0.00000  %FUEL=100.000000  R,EQ.RATIO= 0.000000  PHI,EQ.RATIO= 0.000000

 THERMODYNAMIC PROPERTIES

 P, BAR            1.6500   1.6500   1.6500   1.6500   1.6500   1.6500   1.6500   1.6500
 T, K             4530.00  4540.00  4550.00  4560.00  4570.00  4580.00  4590.00  4600.00
 RHO, KG/CU M    4.8668-3 4.8462-3 4.8259-3 4.8059-3 4.7862-3 4.7668-3 4.7477-3 4.7289-3
 H, KJ/KG        260862.4 261917.8 262958.1 263983.4 264993.9 265989.6 266970.8 267937.5
 U, KJ/KG        226958.9 227870.3 228767.6 229650.7 230519.9 231375.4 232217.1 233045.4
 G, KJ/KG       -451525.3-453099.0-454675.1-456253.4-457834.0-459416.8-461001.7-462588.8
 S, KJ/(KG)(K)   157.2600 157.4927 157.7216 157.9467 158.1680 158.3857 158.5997 158.8101

 M, (1/n)           1.111    1.109    1.106    1.104    1.102    1.100    1.098    1.096
 (dLV/dLP)t      -1.07552 -1.07435 -1.07319 -1.07204 -1.07090 -1.06976 -1.06863 -1.06752
 (dLV/dLT)p        1.9306   1.9142   1.8980   1.8819   1.8661   1.8504   1.8348   1.8195
 Cp, KJ/(KG)(K)  106.3049 104.7860 103.2795 101.7863 100.3068  98.8418  97.3918  95.9574
 GAMMAs            1.2298   1.2314   1.2329   1.2345   1.2361   1.2377   1.2393   1.2410
 SON VEL,M/SEC     6457.2   6474.9   6492.6   6510.2   6527.8   6545.3   6562.8   6580.3

 TRANSPORT PROPERTIES (GASES ONLY)
   CONDUCTIVITY IN UNITS OF MILLIWATTS/(CM)(K)

 VISC,MILLIPOISE  0.58942  0.58886  0.58832  0.58780  0.58729  0.58681  0.58633  0.58588

  WITH EQUILIBRIUM REACTIONS

 Cp, KJ/(KG)(K)  106.3049 104.7860 103.2795 101.7863 100.3068  98.8418  97.3918  95.9574
 CONDUCTIVITY    103.8127 102.2646 100.7328  99.2180  97.7206  96.2410  94.7796  93.3367
 PRANDTL NUMBER    0.6036   0.6034   0.6032   0.6030   0.6028   0.6027   0.6025   0.6023

  WITH FROZEN REACTIONS

 Cp, KJ/(KG)(K)   20.4803  20.4847  20.4889  20.4931  20.4971  20.5010  20.5049  20.5086
 CONDUCTIVITY     17.0656  17.0662  17.0672  17.0686  17.0703  17.0724  17.0748  17.0776
 PRANDTL NUMBER    0.7074   0.7068   0.7063   0.7057   0.7052   0.7047   0.7041   0.7036

 MOLE FRACTIONS

 *H               0.89781  0.90005  0.90224  0.90438  0.90648  0.90853  0.91053  0.91249
 *H2              0.10219  0.09995  0.09776  0.09562  0.09352  0.09147  0.08947  0.08751

  * THERMODYNAMIC PROPERTIES FITTED TO 20000.K

 NOTE. WEIGHT FRACTION OF FUEL IN TOTAL FUELS AND OF OXIDANT IN TOTAL OXIDANTS









               THERMODYNAMIC EQUILIBRIUM PROPERTIES AT ASSIGNED

                           TEMPERATURE AND PRESSURE

 CASE =                

             REACTANT                    WT FRACTION      ENERGY      TEMP
                                          (SEE NOTE)     KJ/KG-MOL      K  
             H2                           1.0000000         0.000      0.000

 O/F=    0.00000  %FUEL=100.000000  R,EQ.RATIO= 0.000000  PHI,EQ.RATIO= 0.000000

 THERMODYNAMIC PROPERTIES

 P, BAR            1.6500   1.6500   1.6500   1.6500   1.8000   1.8000   1.8000   1.8000
 T, K             4610.00  4620.00  4630.00  4640.00  4500.00  4510.00  4520.00  4530.00
 RHO, KG/CU M    4.7103-3 4.6920-3 4.6739-3 4.6562-3 5.4166-3 5.3924-3 5.3686-3 5.3451-3
 H, KJ/KG        268890.0 269828.3 270752.8 271663.4 254690.8 255828.6 256951.0 258058.2
 U, KJ/KG        233860.3 234662.0 235450.7 236226.5 221459.9 222448.4 223422.6 224382.4
 G, KJ/KG       -464177.9-465769.1-467362.3-468957.5-443916.5-445470.2-447026.4-448585.1
 S, KJ/(KG)(K)   159.0169 159.2202 159.4201 159.6166 155.2460 155.4986 155.7472 155.9919

 M, (1/n)           1.094    1.092    1.090    1.089    1.126    1.123    1.121    1.118
 (dLV/dLP)t      -1.06641 -1.06532 -1.06423 -1.06316 -1.08283 -1.08164 -1.08046 -1.07928
 (dLV/dLT)p        1.8044   1.7894   1.7747   1.7601   2.0273   2.0104   1.9936   1.9769
 Cp, KJ/(KG)(K)   94.5390  93.1371  91.7521  90.3843 114.5499 113.0127 111.4825 109.9602
 GAMMAs            1.2426   1.2444   1.2461   1.2478   1.2227   1.2241   1.2255   1.2269
 SON VEL,M/SEC     6597.7   6615.1   6632.4   6649.8   6374.2   6392.1   6410.0   6427.8

 TRANSPORT PROPERTIES (GASES ONLY)
   CONDUCTIVITY IN UNITS OF MILLIWATTS/(CM)(K)

 VISC,MILLIPOISE  0.58544  0.58502  0.58462  0.58423  0.59661  0.59597  0.59535  0.59474

  WITH EQUILIBRIUM REACTIONS

 Cp, KJ/(KG)(K)   94.5390  93.1371  91.7521  90.3843 114.5499 113.0127 111.4825 109.9602
 CONDUCTIVITY     91.9127  90.5078  89.1222  87.7562 113.0012 111.3988 109.8086 108.2311
 PRANDTL NUMBER    0.6022   0.6020   0.6019   0.6017   0.6048   0.6046   0.6044   0.6042

  WITH FROZEN REACTIONS

 Cp, KJ/(KG)(K)   20.5122  20.5157  20.5191  20.5225  20.4565  20.4614  20.4662  20.4710
 CONDUCTIVITY     17.0808  17.0843  17.0882  17.0925  17.1717  17.1703  17.1692  17.1685
 PRANDTL NUMBER    0.7031   0.7025   0.7020   0.7015   0.7107   0.7102   0.7097   0.7091

 MOLE FRACTIONS

 *H               0.91441  0.91628  0.91811  0.91990  0.88295  0.88547  0.88794  0.89036
 *H2              0.08559  0.08372  0.08189  0.08010  0.11705  0.11453  0.11206  0.10964

  * THERMODYNAMIC PROPERTIES FITTED TO 20000.K

 NOTE. WEIGHT FRACTION OF FUEL IN TOTAL FUELS AND OF OXIDANT IN TOTAL OXIDANTS









               THERMODYNAMIC EQUILIBRIUM PROPERTIES AT ASSIGNED

                           TEMPERATURE AND PRESSURE

 CASE =                

             REACTANT                    WT FRACTION      ENERGY      TEMP
                                          (SEE NOTE)     KJ/KG-MOL      K  
             H2                           1.0000000         0.000      0.000

 O/F=    0.00000  %FUEL=100.000000  R,EQ.RATIO= 0.000000  PHI,EQ.RATIO= 0.000000

 THERMODYNAMIC PROPERTIES

 P, BAR            1.8000   1.8000   1.8000   1.8000   1.8000   1.8000   1.8000   1.8000
 T, K             4540.00  4550.00  4560.00  4570.00  4580.00  4590.00  4600.00  4610.00
 RHO, KG/CU M    5.3219-3 5.2991-3 5.2766-3 5.2545-3 5.2327-3 5.2112-3 5.1900-3 5.1691-3
 H, KJ/KG        259150.3 260227.2 261289.2 262336.2 263368.5 264386.2 265389.4 266378.1
 U, KJ/KG        225327.9 226259.2 227176.5 228079.8 228969.3 229845.1 230707.2 231555.9
 G, KJ/KG       -450146.2-451709.8-453275.6-454843.8-456414.2-457986.9-459561.8-461138.9
 S, KJ/(KG)(K)   156.2327 156.4697 156.7028 156.9322 157.1578 157.3798 157.5981 157.8128

 M, (1/n)           1.116    1.114    1.111    1.109    1.107    1.105    1.103    1.101
 (dLV/dLP)t      -1.07811 -1.07694 -1.07578 -1.07463 -1.07348 -1.07234 -1.07121 -1.07009
 (dLV/dLT)p        1.9604   1.9440   1.9277   1.9116   1.8957   1.8799   1.8643   1.8489
 Cp, KJ/(KG)(K)  108.4467 106.9428 105.4494 103.9672 102.4968 101.0391  99.5947  98.1640
 GAMMAs            1.2283   1.2298   1.2313   1.2328   1.2343   1.2359   1.2375   1.2391
 SON VEL,M/SEC     6445.6   6463.3   6481.0   6498.6   6516.2   6533.7   6551.2   6568.7

 TRANSPORT PROPERTIES (GASES ONLY)
   CONDUCTIVITY IN UNITS OF MILLIWATTS/(CM)(K)

 VISC,MILLIPOISE  0.59415  0.59357  0.59301  0.59246  0.59193  0.59141  0.59091  0.59043

  WITH EQUILIBRIUM REACTIONS

 Cp, KJ/(KG)(K)  108.4467 106.9428 105.4494 103.9672 102.4968 101.0391  99.5947  98.1640
 CONDUCTIVITY    106.6672 105.1175 103.5825 102.0628 100.5590  99.0715  97.6008  96.1472
 PRANDTL NUMBER    0.6041   0.6039   0.6037   0.6035   0.6033   0.6032   0.6030   0.6028

  WITH FROZEN REACTIONS

 Cp, KJ/(KG)(K)   20.4756  20.4800  20.4844  20.4887  20.4928  20.4968  20.5008  20.5046
 CONDUCTIVITY     17.1681  17.1681  17.1684  17.1691  17.1701  17.1715  17.1733  17.1754
 PRANDTL NUMBER    0.7086   0.7081   0.7075   0.7070   0.7065   0.7059   0.7054   0.7049

 MOLE FRACTIONS

 *H               0.89273  0.89505  0.89731  0.89953  0.90170  0.90383  0.90591  0.90794
 *H2              0.10727  0.10495  0.10269  0.10047  0.09829  0.09617  0.09409  0.09206

  * THERMODYNAMIC PROPERTIES FITTED TO 20000.K

 NOTE. WEIGHT FRACTION OF FUEL IN TOTAL FUELS AND OF OXIDANT IN TOTAL OXIDANTS









               THERMODYNAMIC EQUILIBRIUM PROPERTIES AT ASSIGNED

                           TEMPERATURE AND PRESSURE

 CASE =                

             REACTANT                    WT FRACTION      ENERGY      TEMP
                                          (SEE NOTE)     KJ/KG-MOL      K  
             H2                           1.0000000         0.000      0.000

 O/F=    0.00000  %FUEL=100.000000  R,EQ.RATIO= 0.000000  PHI,EQ.RATIO= 0.000000

 THERMODYNAMIC PROPERTIES

 P, BAR            1.8000   1.8000   1.8000   2.0000   2.0000   2.0000   2.0000   2.0000
 T, K             4620.00  4630.00  4640.00  4500.00  4510.00  4520.00  4530.00  4540.00
 RHO, KG/CU M    5.1485-3 5.1282-3 5.1082-3 6.0727-3 6.0448-3 6.0173-3 5.9902-3 5.9635-3
 H, KJ/KG        267352.7 268313.2 269259.7 251012.3 252192.5 253357.7 254507.9 255643.1
 U, KJ/KG        232391.2 233213.4 234022.5 218078.0 219106.2 220120.2 221120.1 222105.9
 G, KJ/KG       -462718.1-464299.4-465882.7-440430.7-441968.6-443509.0-445052.1-446597.6
 S, KJ/(KG)(K)   158.0240 158.2316 158.4359 153.6540 153.9160 154.1741 154.4282 154.6786

 M, (1/n)           1.099    1.097    1.095    1.136    1.133    1.131    1.128    1.126
 (dLV/dLP)t      -1.06897 -1.06787 -1.06678 -1.08734 -1.08617 -1.08499 -1.08382 -1.08266
 (dLV/dLT)p        1.8336   1.8185   1.8036   2.0833   2.0664   2.0496   2.0329   2.0163
 Cp, KJ/(KG)(K)   96.7477  95.3463  93.9603 118.7786 117.2717 115.7678 114.2680 112.7732
 GAMMAs            1.2407   1.2423   1.2440   1.2196   1.2209   1.2223   1.2236   1.2250
 SON VEL,M/SEC     6586.1   6603.5   6620.8   6337.8   6355.8   6373.8   6391.7   6409.5

 TRANSPORT PROPERTIES (GASES ONLY)
   CONDUCTIVITY IN UNITS OF MILLIWATTS/(CM)(K)

 VISC,MILLIPOISE  0.58996  0.58951  0.58908  0.60336  0.60269  0.60203  0.60139  0.60075

  WITH EQUILIBRIUM REACTIONS

 Cp, KJ/(KG)(K)   96.7477  95.3463  93.9603 118.7786 117.2717 115.7678 114.2680 112.7732
 CONDUCTIVITY     94.7112  93.2930  91.8931 118.3560 116.7552 115.1631 113.5806 112.0083
 PRANDTL NUMBER    0.6026   0.6025   0.6023   0.6055   0.6054   0.6052   0.6050   0.6049

  WITH FROZEN REACTIONS

 Cp, KJ/(KG)(K)   20.5083  20.5119  20.5154  20.4438  20.4490  20.4541  20.4591  20.4640
 CONDUCTIVITY     17.1778  17.1806  17.1838  17.3048  17.3024  17.3002  17.2984  17.2969
 PRANDTL NUMBER    0.7043   0.7038   0.7033   0.7128   0.7123   0.7118   0.7113   0.7108

 MOLE FRACTIONS

 *H               0.90993  0.91187  0.91378  0.87289  0.87558  0.87821  0.88079  0.88331
 *H2              0.09007  0.08812  0.08622  0.12711  0.12442  0.12179  0.11921  0.11669

  * THERMODYNAMIC PROPERTIES FITTED TO 20000.K

 NOTE. WEIGHT FRACTION OF FUEL IN TOTAL FUELS AND OF OXIDANT IN TOTAL OXIDANTS









               THERMODYNAMIC EQUILIBRIUM PROPERTIES AT ASSIGNED

                           TEMPERATURE AND PRESSURE

 CASE =                

             REACTANT                    WT FRACTION      ENERGY      TEMP
                                          (SEE NOTE)     KJ/KG-MOL      K  
             H2                           1.0000000         0.000      0.000

 O/F=    0.00000  %FUEL=100.000000  R,EQ.RATIO= 0.000000  PHI,EQ.RATIO= 0.000000

 THERMODYNAMIC PROPERTIES

 P, BAR            2.0000   2.0000   2.0000   2.0000   2.0000   2.0000   2.0000   2.0000
 T, K             4550.00  4560.00  4570.00  4580.00  4590.00  4600.00  4610.00  4620.00
 RHO, KG/CU M    5.9372-3 5.9113-3 5.8858-3 5.8607-3 5.8359-3 5.8115-3 5.7874-3 5.7637-3
 H, KJ/KG        256763.4 257868.8 258959.5 260035.4 261096.7 262143.6 263176.0 264194.1
 U, KJ/KG        223077.7 224035.6 224979.5 225909.6 226826.0 227728.8 228618.1 229494.0
 G, KJ/KG       -448145.6-449696.1-451249.0-452804.2-454361.8-455921.7-457483.8-459048.2
 S, KJ/(KG)(K)   154.9251 155.1677 155.4067 155.6418 155.8733 156.1011 156.3253 156.5459

 M, (1/n)           1.123    1.121    1.118    1.116    1.114    1.111    1.109    1.107
 (dLV/dLP)t      -1.08149 -1.08033 -1.07917 -1.07802 -1.07687 -1.07573 -1.07460 -1.07347
 (dLV/dLT)p        1.9998   1.9834   1.9672   1.9510   1.9350   1.9192   1.9035   1.8879
 Cp, KJ/(KG)(K)  111.2843 109.8024 108.3283 106.8627 105.4065 103.9605 102.5253 101.1016
 GAMMAs            1.2263   1.2277   1.2292   1.2306   1.2321   1.2336   1.2351   1.2366
 SON VEL,M/SEC     6427.3   6445.0   6462.7   6480.4   6498.0   6515.6   6533.1   6550.6

 TRANSPORT PROPERTIES (GASES ONLY)
   CONDUCTIVITY IN UNITS OF MILLIWATTS/(CM)(K)

 VISC,MILLIPOISE  0.60013  0.59953  0.59893  0.59836  0.59779  0.59724  0.59671  0.59619

  WITH EQUILIBRIUM REACTIONS

 Cp, KJ/(KG)(K)  111.2843 109.8024 108.3283 106.8627 105.4065 103.9605 102.5253 101.1016
 CONDUCTIVITY    110.4472 108.8979 107.3611 105.8374 104.3275 102.8318 101.3509  99.8854
 PRANDTL NUMBER    0.6047   0.6045   0.6043   0.6042   0.6040   0.6038   0.6036   0.6034

  WITH FROZEN REACTIONS

 Cp, KJ/(KG)(K)   20.4688  20.4734  20.4779  20.4823  20.4866  20.4908  20.4948  20.4988
 CONDUCTIVITY     17.2957  17.2949  17.2944  17.2942  17.2944  17.2948  17.2957  17.2969
 PRANDTL NUMBER    0.7102   0.7097   0.7092   0.7087   0.7081   0.7076   0.7071   0.7066

 MOLE FRACTIONS

 *H               0.88579  0.88821  0.89058  0.89290  0.89518  0.89741  0.89959  0.90172
 *H2              0.11421  0.11179  0.10942  0.10709  0.10482  0.10259  0.10041  0.09828

  * THERMODYNAMIC PROPERTIES FITTED TO 20000.K

 NOTE. WEIGHT FRACTION OF FUEL IN TOTAL FUELS AND OF OXIDANT IN TOTAL OXIDANTS









               THERMODYNAMIC EQUILIBRIUM PROPERTIES AT ASSIGNED

                           TEMPERATURE AND PRESSURE

 CASE =                

             REACTANT                    WT FRACTION      ENERGY      TEMP
                                          (SEE NOTE)     KJ/KG-MOL      K  
             H2                           1.0000000         0.000      0.000

 O/F=    0.00000  %FUEL=100.000000  R,EQ.RATIO= 0.000000  PHI,EQ.RATIO= 0.000000

 THERMODYNAMIC PROPERTIES

 P, BAR            2.0000   2.0000   2.2500   2.2500   2.2500   2.2500   2.2500   2.2500
 T, K             4630.00  4640.00  4500.00  4510.00  4520.00  4530.00  4540.00  4550.00
 RHO, KG/CU M    5.7403-3 5.7172-3 6.9044-3 6.8718-3 6.8396-3 6.8079-3 6.7766-3 6.7458-3
 H, KJ/KG        265198.1 266188.0 246713.3 247938.5 249149.1 250345.1 251526.5 252693.4
 U, KJ/KG        230356.6 231206.0 214125.6 215195.9 216252.4 217295.2 218324.2 219339.5
 G, KJ/KG       -460614.7-462183.4-436571.9-438091.7-439614.1-441139.3-442667.0-444197.4
 S, KJ/(KG)(K)   156.7630 156.9766 151.8412 152.1131 152.3812 152.6456 152.9061 153.1628

 M, (1/n)           1.105    1.103    1.148    1.145    1.142    1.140    1.137    1.134
 (dLV/dLP)t      -1.07235 -1.07124 -1.09229 -1.09115 -1.09000 -1.08885 -1.08770 -1.08655
 (dLV/dLT)p        1.8725   1.8573   2.1447   2.1280   2.1114   2.0948   2.0783   2.0619
 Cp, KJ/(KG)(K)   99.6901  98.2912 123.2442 121.7878 120.3299 118.8716 117.4139 115.9579
 GAMMAs            1.2381   1.2397   1.2165   1.2177   1.2190   1.2202   1.2215   1.2228
 SON VEL,M/SEC     6568.0   6585.4   6296.3   6314.4   6332.5   6350.5   6368.4   6386.3

 TRANSPORT PROPERTIES (GASES ONLY)
   CONDUCTIVITY IN UNITS OF MILLIWATTS/(CM)(K)

 VISC,MILLIPOISE  0.59569  0.59520  0.61109  0.61039  0.60971  0.60903  0.60836  0.60771

  WITH EQUILIBRIUM REACTIONS

 Cp, KJ/(KG)(K)   99.6901  98.2912 123.2442 121.7878 120.3299 118.8716 117.4139 115.9579
 CONDUCTIVITY     98.4356  97.0019 124.2390 122.6558 121.0773 119.5043 117.9378 116.3786
 PRANDTL NUMBER    0.6033   0.6031   0.6062   0.6061   0.6059   0.6058   0.6057   0.6055

  WITH FROZEN REACTIONS

 Cp, KJ/(KG)(K)   20.5027  20.5064  20.4290  20.4345  20.4400  20.4453  20.4504  20.4555
 CONDUCTIVITY     17.2984  17.3003  17.4597  17.4563  17.4531  17.4502  17.4475  17.4452
 PRANDTL NUMBER    0.7060   0.7055   0.7150   0.7145   0.7141   0.7136   0.7131   0.7126

 MOLE FRACTIONS

 *H               0.90381  0.90585  0.86090  0.86377  0.86659  0.86935  0.87205  0.87470
 *H2              0.09619  0.09415  0.13910  0.13623  0.13341  0.13065  0.12795  0.12530

  * THERMODYNAMIC PROPERTIES FITTED TO 20000.K

 NOTE. WEIGHT FRACTION OF FUEL IN TOTAL FUELS AND OF OXIDANT IN TOTAL OXIDANTS









               THERMODYNAMIC EQUILIBRIUM PROPERTIES AT ASSIGNED

                           TEMPERATURE AND PRESSURE

 CASE =                

             REACTANT                    WT FRACTION      ENERGY      TEMP
                                          (SEE NOTE)     KJ/KG-MOL      K  
             H2                           1.0000000         0.000      0.000

 O/F=    0.00000  %FUEL=100.000000  R,EQ.RATIO= 0.000000  PHI,EQ.RATIO= 0.000000

 THERMODYNAMIC PROPERTIES

 P, BAR            2.2500   2.2500   2.2500   2.2500   2.2500   2.2500   2.2500   2.2500
 T, K             4560.00  4570.00  4580.00  4590.00  4600.00  4610.00  4620.00  4630.00
 RHO, KG/CU M    6.7155-3 6.6856-3 6.6561-3 6.6271-3 6.5984-3 6.5702-3 6.5424-3 6.5150-3
 H, KJ/KG        253845.7 254983.5 256106.8 257215.7 258310.2 259390.5 260456.5 261508.4
 U, KJ/KG        220341.0 221329.0 222303.3 223264.0 224211.3 225145.1 226065.6 226972.8
 G, KJ/KG       -445730.3-447265.7-448803.6-450343.9-451886.6-453431.7-454979.1-456528.8
 S, KJ/(KG)(K)   153.4158 153.6650 153.9106 154.1524 154.3906 154.6252 154.8562 155.0836

 M, (1/n)           1.132    1.129    1.127    1.124    1.122    1.119    1.117    1.115
 (dLV/dLP)t      -1.08540 -1.08425 -1.08310 -1.08196 -1.08082 -1.07968 -1.07855 -1.07742
 (dLV/dLT)p        2.0455   2.0292   2.0130   1.9969   1.9809   1.9651   1.9493   1.9337
 Cp, KJ/(KG)(K)  114.5047 113.0551 111.6101 110.1706 108.7375 107.3115 105.8935 104.4842
 GAMMAs            1.2241   1.2254   1.2268   1.2282   1.2295   1.2310   1.2324   1.2338
 SON VEL,M/SEC     6404.2   6422.0   6439.7   6457.4   6475.1   6492.7   6510.2   6527.7

 TRANSPORT PROPERTIES (GASES ONLY)
   CONDUCTIVITY IN UNITS OF MILLIWATTS/(CM)(K)

 VISC,MILLIPOISE  0.60706  0.60643  0.60581  0.60520  0.60460  0.60402  0.60345  0.60289

  WITH EQUILIBRIUM REACTIONS

 Cp, KJ/(KG)(K)  114.5047 113.0551 111.6101 110.1706 108.7375 107.3115 105.8935 104.4842
 CONDUCTIVITY    114.8276 113.2855 111.7531 110.2312 108.7204 107.2213 105.7347 104.2609
 PRANDTL NUMBER    0.6054   0.6052   0.6050   0.6049   0.6047   0.6045   0.6044   0.6042

  WITH FROZEN REACTIONS

 Cp, KJ/(KG)(K)   20.4604  20.4652  20.4699  20.4745  20.4790  20.4833  20.4876  20.4917
 CONDUCTIVITY     17.4431  17.4414  17.4400  17.4389  17.4381  17.4376  17.4374  17.4376
 PRANDTL NUMBER    0.7121   0.7116   0.7111   0.7105   0.7100   0.7095   0.7090   0.7085

 MOLE FRACTIONS

 *H               0.87730  0.87985  0.88235  0.88480  0.88719  0.88954  0.89184  0.89410
 *H2              0.12270  0.12015  0.11765  0.11520  0.11281  0.11046  0.10816  0.10590

  * THERMODYNAMIC PROPERTIES FITTED TO 20000.K

 NOTE. WEIGHT FRACTION OF FUEL IN TOTAL FUELS AND OF OXIDANT IN TOTAL OXIDANTS









               THERMODYNAMIC EQUILIBRIUM PROPERTIES AT ASSIGNED

                           TEMPERATURE AND PRESSURE

 CASE =                

             REACTANT                    WT FRACTION      ENERGY      TEMP
                                          (SEE NOTE)     KJ/KG-MOL      K  
             H2                           1.0000000         0.000      0.000

 O/F=    0.00000  %FUEL=100.000000  R,EQ.RATIO= 0.000000  PHI,EQ.RATIO= 0.000000

 THERMODYNAMIC PROPERTIES

 P, BAR            2.2500
 T, K             4640.00
 RHO, KG/CU M    6.4880-3
 H, KJ/KG        262546.2
 U, KJ/KG        227866.9
 G, KJ/KG       -458080.8
 S, KJ/(KG)(K)   155.3075

 M, (1/n)           1.112
 (dLV/dLP)t      -1.07630
 (dLV/dLT)p        1.9182
 Cp, KJ/(KG)(K)  103.0844
 GAMMAs            1.2353
 SON VEL,M/SEC     6545.2

 TRANSPORT PROPERTIES (GASES ONLY)
   CONDUCTIVITY IN UNITS OF MILLIWATTS/(CM)(K)

 VISC,MILLIPOISE  0.60235

  WITH EQUILIBRIUM REACTIONS

 Cp, KJ/(KG)(K)  103.0844
 CONDUCTIVITY    102.8007
 PRANDTL NUMBER    0.6040

  WITH FROZEN REACTIONS

 Cp, KJ/(KG)(K)   20.4958
 CONDUCTIVITY     17.4381
 PRANDTL NUMBER    0.7080

 MOLE FRACTIONS

 *H               0.89630
 *H2              0.10370

  * THERMODYNAMIC PROPERTIES FITTED TO 20000.K

 NOTE. WEIGHT FRACTION OF FUEL IN TOTAL FUELS AND OF OXIDANT IN TOTAL OXIDANTS



  
