
 *******************************************************************************

         NASA-GLENN CHEMICAL EQUILIBRIUM PROGRAM CEA2, MAY 21, 2004
                   BY  BONNIE MCBRIDE AND SANFORD GORDON
      REFS: NASA RP-1311, PART I, 1994 AND NASA RP-1311, PART II, 1996

 *******************************************************************************



  prob tp ions
  p,bar= 0.11,0.12,0.132,0.148,0.165,0.18,0.2,0.225,0.25,0.28,0.31,0.35,0.39,0.44
 ,0.49
  t,k= 200,205,210,215,220,225,230,235,240,245,250,255,260,265,270
  
  reac
  na H2                wt%=100.0000
  
  output short
  output siunits
  output transport
  
 end





               THERMODYNAMIC EQUILIBRIUM PROPERTIES AT ASSIGNED

                           TEMPERATURE AND PRESSURE

 CASE =                

             REACTANT                    WT FRACTION      ENERGY      TEMP
                                          (SEE NOTE)     KJ/KG-MOL      K  
             H2                           1.0000000         0.000      0.000

 O/F=    0.00000  %FUEL=100.000000  R,EQ.RATIO= 0.000000  PHI,EQ.RATIO= 0.000000

 THERMODYNAMIC PROPERTIES

 P, BAR           0.11000  0.11000  0.11000  0.11000  0.11000  0.11000  0.11000  0.11000
 T, K              200.00   205.00   210.00   215.00   220.00   225.00   230.00   235.00
 RHO, KG/CU M    1.3335-2 1.3010-2 1.2700-2 1.2405-2 1.2123-2 1.1853-2 1.1596-2 1.1349-2
 H, KJ/KG        -1376.71 -1308.50 -1240.01 -1171.25 -1102.24 -1033.00  -963.53  -893.85
 U, KJ/KG        -2201.62 -2154.02 -2106.15 -2058.01 -2009.63 -1961.01 -1912.16 -1863.11
 G, KJ/KG        -15044.4 -15386.9 -15731.1 -16077.0 -16424.4 -16773.4 -17124.0 -17476.0
 S, KJ/(KG)(K)    68.3386  68.6753  69.0053  69.3289  69.6461  69.9573  70.2627  70.5624

 M, (1/n)           2.016    2.016    2.016    2.016    2.016    2.016    2.016    2.016
 (dLV/dLP)t      -1.00000 -1.00000 -0.99999 -0.99999 -0.99999 -0.99999 -0.99999 -0.99999
 (dLV/dLT)p        1.0000   1.0000   1.0000   1.0000   1.0000   1.0000   1.0000   1.0000
 Cp, KJ/(KG)(K)   13.6145  13.6711  13.7251  13.7765  13.8252  13.8715  13.9152  13.9565
 GAMMAs            1.4346   1.4320   1.4296   1.4273   1.4252   1.4232   1.4213   1.4195
 SON VEL,M/SEC     1087.9   1100.4   1112.8   1125.0   1137.2   1149.2   1161.1   1173.0

 TRANSPORT PROPERTIES (GASES ONLY)
   CONDUCTIVITY IN UNITS OF MILLIWATTS/(CM)(K)

 VISC,MILLIPOISE  0.00000  0.00000  0.00000  0.00000  0.00000  0.00000  0.00000  0.00000

  WITH EQUILIBRIUM REACTIONS

 Cp, KJ/(KG)(K)   13.6145  13.6711  13.7251  13.7765  13.8252  13.8715  13.9152  13.9565
 CONDUCTIVITY      0.0000   0.0000   0.0000   0.0000   0.0000   0.0000   0.0000   0.0000
 PRANDTL NUMBER    2.4036   2.3905   2.3795   2.3702   2.3623   2.3558   2.3503   2.3458

  WITH FROZEN REACTIONS

 Cp, KJ/(KG)(K)   13.6145  13.6711  13.7251  13.7765  13.8252  13.8715  13.9152  13.9565
 CONDUCTIVITY      0.0000   0.0000   0.0000   0.0000   0.0000   0.0000   0.0000   0.0000
 PRANDTL NUMBER    2.4036   2.3905   2.3795   2.3702   2.3623   2.3558   2.3503   2.3458

 MOLE FRACTIONS

 *H2              1.00000  1.00000  1.00000  1.00000  1.00000  1.00000  1.00000  1.00000

  * THERMODYNAMIC PROPERTIES FITTED TO 20000.K

 NOTE. WEIGHT FRACTION OF FUEL IN TOTAL FUELS AND OF OXIDANT IN TOTAL OXIDANTS









               THERMODYNAMIC EQUILIBRIUM PROPERTIES AT ASSIGNED

                           TEMPERATURE AND PRESSURE

 CASE =                

             REACTANT                    WT FRACTION      ENERGY      TEMP
                                          (SEE NOTE)     KJ/KG-MOL      K  
             H2                           1.0000000         0.000      0.000

 O/F=    0.00000  %FUEL=100.000000  R,EQ.RATIO= 0.000000  PHI,EQ.RATIO= 0.000000

 THERMODYNAMIC PROPERTIES

 P, BAR           0.11000  0.11000  0.11000  0.11000  0.11000  0.11000  0.11000  0.12000
 T, K              240.00   245.00   250.00   255.00   260.00   265.00   270.00   200.00
 RHO, KG/CU M    1.1113-2 1.0886-2 1.0668-2 1.0459-2 1.0258-2 1.0064-2 9.8778-3 1.4547-2
 H, KJ/KG         -823.97  -753.90  -683.66  -613.24  -542.67  -471.95  -401.09 -1376.71
 U, KJ/KG        -1813.85 -1764.40 -1714.78 -1664.98 -1615.03 -1564.94 -1514.70 -2201.61
 G, KJ/KG        -17829.6 -18184.6 -18541.0 -18898.9 -19258.1 -19618.7 -19980.6 -14972.6
 S, KJ/(KG)(K)    70.8567  71.1456  71.4294  71.7083  71.9824  72.2518  72.5167  67.9795

 M, (1/n)           2.016    2.016    2.016    2.016    2.016    2.016    2.016    2.016
 (dLV/dLP)t      -0.99999 -0.99999 -0.99999 -0.99999 -0.99999 -0.99999 -0.99999 -1.00000
 (dLV/dLT)p        1.0000   1.0000   1.0000   1.0000   1.0000   1.0000   1.0000   1.0000
 Cp, KJ/(KG)(K)   13.9954  14.0321  14.0666  14.0990  14.1293  14.1578  14.1845  13.6144
 GAMMAs            1.4179   1.4163   1.4149   1.4135   1.4123   1.4111   1.4100   1.4346
 SON VEL,M/SEC     1184.7   1196.3   1207.8   1219.3   1230.6   1241.9   1253.1   1087.9

 TRANSPORT PROPERTIES (GASES ONLY)
   CONDUCTIVITY IN UNITS OF MILLIWATTS/(CM)(K)

 VISC,MILLIPOISE  0.00000  0.00000  0.00000  0.00000  0.00000  0.00000  0.00000  0.00000

  WITH EQUILIBRIUM REACTIONS

 Cp, KJ/(KG)(K)   13.9954  14.0321  14.0666  14.0990  14.1293  14.1578  14.1845  13.6144
 CONDUCTIVITY      0.0000   0.0000   0.0000   0.0000   0.0000   0.0000   0.0000   0.0000
 PRANDTL NUMBER    2.3421   2.3390   2.3366   2.3346   2.3331   2.3320   2.3311   2.4036

  WITH FROZEN REACTIONS

 Cp, KJ/(KG)(K)   13.9954  14.0321  14.0666  14.0990  14.1293  14.1578  14.1845  13.6144
 CONDUCTIVITY      0.0000   0.0000   0.0000   0.0000   0.0000   0.0000   0.0000   0.0000
 PRANDTL NUMBER    2.3421   2.3390   2.3366   2.3346   2.3331   2.3320   2.3311   2.4036

 MOLE FRACTIONS

 *H2              1.00000  1.00000  1.00000  1.00000  1.00000  1.00000  1.00000  1.00000

  * THERMODYNAMIC PROPERTIES FITTED TO 20000.K

 NOTE. WEIGHT FRACTION OF FUEL IN TOTAL FUELS AND OF OXIDANT IN TOTAL OXIDANTS









               THERMODYNAMIC EQUILIBRIUM PROPERTIES AT ASSIGNED

                           TEMPERATURE AND PRESSURE

 CASE =                

             REACTANT                    WT FRACTION      ENERGY      TEMP
                                          (SEE NOTE)     KJ/KG-MOL      K  
             H2                           1.0000000         0.000      0.000

 O/F=    0.00000  %FUEL=100.000000  R,EQ.RATIO= 0.000000  PHI,EQ.RATIO= 0.000000

 THERMODYNAMIC PROPERTIES

 P, BAR           0.12000  0.12000  0.12000  0.12000  0.12000  0.12000  0.12000  0.12000
 T, K              205.00   210.00   215.00   220.00   225.00   230.00   235.00   240.00
 RHO, KG/CU M    1.4192-2 1.3855-2 1.3532-2 1.3225-2 1.2931-2 1.2650-2 1.2381-2 1.2123-2
 H, KJ/KG        -1308.50 -1240.00 -1171.25 -1102.24 -1033.00  -963.53  -893.85  -823.97
 U, KJ/KG        -2154.02 -2106.15 -2058.01 -2009.63 -1961.01 -1912.16 -1863.11 -1813.85
 G, KJ/KG        -15313.3 -15655.8 -15999.8 -16345.4 -16692.7 -17041.4 -17391.7 -17743.4
 S, KJ/(KG)(K)    68.3163  68.6464  68.9700  69.2872  69.5985  69.9038  70.2035  70.4978

 M, (1/n)           2.016    2.016    2.016    2.016    2.016    2.016    2.016    2.016
 (dLV/dLP)t      -0.99999 -0.99999 -0.99999 -0.99999 -0.99999 -0.99999 -0.99999 -0.99999
 (dLV/dLT)p        1.0000   1.0000   1.0000   1.0000   1.0000   1.0000   1.0000   1.0000
 Cp, KJ/(KG)(K)   13.6711  13.7251  13.7765  13.8252  13.8715  13.9152  13.9565  13.9954
 GAMMAs            1.4320   1.4296   1.4273   1.4252   1.4232   1.4213   1.4195   1.4179
 SON VEL,M/SEC     1100.4   1112.8   1125.0   1137.2   1149.2   1161.1   1173.0   1184.7

 TRANSPORT PROPERTIES (GASES ONLY)
   CONDUCTIVITY IN UNITS OF MILLIWATTS/(CM)(K)

 VISC,MILLIPOISE  0.00000  0.00000  0.00000  0.00000  0.00000  0.00000  0.00000  0.00000

  WITH EQUILIBRIUM REACTIONS

 Cp, KJ/(KG)(K)   13.6711  13.7251  13.7765  13.8252  13.8715  13.9152  13.9565  13.9954
 CONDUCTIVITY      0.0000   0.0000   0.0000   0.0000   0.0000   0.0000   0.0000   0.0000
 PRANDTL NUMBER    2.3905   2.3795   2.3702   2.3623   2.3558   2.3503   2.3458   2.3421

  WITH FROZEN REACTIONS

 Cp, KJ/(KG)(K)   13.6711  13.7251  13.7765  13.8252  13.8715  13.9152  13.9565  13.9954
 CONDUCTIVITY      0.0000   0.0000   0.0000   0.0000   0.0000   0.0000   0.0000   0.0000
 PRANDTL NUMBER    2.3905   2.3795   2.3702   2.3623   2.3558   2.3503   2.3458   2.3421

 MOLE FRACTIONS

 *H2              1.00000  1.00000  1.00000  1.00000  1.00000  1.00000  1.00000  1.00000

  * THERMODYNAMIC PROPERTIES FITTED TO 20000.K

 NOTE. WEIGHT FRACTION OF FUEL IN TOTAL FUELS AND OF OXIDANT IN TOTAL OXIDANTS









               THERMODYNAMIC EQUILIBRIUM PROPERTIES AT ASSIGNED

                           TEMPERATURE AND PRESSURE

 CASE =                

             REACTANT                    WT FRACTION      ENERGY      TEMP
                                          (SEE NOTE)     KJ/KG-MOL      K  
             H2                           1.0000000         0.000      0.000

 O/F=    0.00000  %FUEL=100.000000  R,EQ.RATIO= 0.000000  PHI,EQ.RATIO= 0.000000

 THERMODYNAMIC PROPERTIES

 P, BAR           0.12000  0.12000  0.12000  0.12000  0.12000  0.12000  0.13200  0.13200
 T, K              245.00   250.00   255.00   260.00   265.00   270.00   200.00   205.00
 RHO, KG/CU M    1.1875-2 1.1638-2 1.1410-2 1.1190-2 1.0979-2 1.0776-2 1.6002-2 1.5612-2
 H, KJ/KG         -753.90  -683.66  -613.24  -542.67  -471.95  -401.09 -1376.71 -1308.50
 U, KJ/KG        -1764.40 -1714.78 -1664.98 -1615.03 -1564.94 -1514.70 -2201.61 -2154.02
 G, KJ/KG        -18096.7 -18451.3 -18807.3 -19164.8 -19523.6 -19883.7 -14894.0 -15232.8
 S, KJ/(KG)(K)    70.7867  71.0706  71.3494  71.6235  71.8929  72.1578  67.5864  67.9232

 M, (1/n)           2.016    2.016    2.016    2.016    2.016    2.016    2.016    2.016
 (dLV/dLP)t      -0.99999 -0.99999 -0.99999 -0.99999 -0.99999 -0.99999 -1.00000 -0.99999
 (dLV/dLT)p        1.0000   1.0000   1.0000   1.0000   1.0000   1.0000   1.0000   1.0000
 Cp, KJ/(KG)(K)   14.0321  14.0666  14.0990  14.1293  14.1578  14.1845  13.6144  13.6711
 GAMMAs            1.4163   1.4149   1.4135   1.4123   1.4111   1.4100   1.4346   1.4320
 SON VEL,M/SEC     1196.3   1207.8   1219.3   1230.6   1241.9   1253.1   1087.9   1100.4

 TRANSPORT PROPERTIES (GASES ONLY)
   CONDUCTIVITY IN UNITS OF MILLIWATTS/(CM)(K)

 VISC,MILLIPOISE  0.00000  0.00000  0.00000  0.00000  0.00000  0.00000  0.00000  0.00000

  WITH EQUILIBRIUM REACTIONS

 Cp, KJ/(KG)(K)   14.0321  14.0666  14.0990  14.1293  14.1578  14.1845  13.6144  13.6711
 CONDUCTIVITY      0.0000   0.0000   0.0000   0.0000   0.0000   0.0000   0.0000   0.0000
 PRANDTL NUMBER    2.3390   2.3366   2.3346   2.3331   2.3320   2.3311   2.4036   2.3905

  WITH FROZEN REACTIONS

 Cp, KJ/(KG)(K)   14.0321  14.0666  14.0990  14.1293  14.1578  14.1845  13.6144  13.6711
 CONDUCTIVITY      0.0000   0.0000   0.0000   0.0000   0.0000   0.0000   0.0000   0.0000
 PRANDTL NUMBER    2.3390   2.3366   2.3346   2.3331   2.3320   2.3311   2.4036   2.3905

 MOLE FRACTIONS

 *H2              1.00000  1.00000  1.00000  1.00000  1.00000  1.00000  1.00000  1.00000

  * THERMODYNAMIC PROPERTIES FITTED TO 20000.K

 NOTE. WEIGHT FRACTION OF FUEL IN TOTAL FUELS AND OF OXIDANT IN TOTAL OXIDANTS









               THERMODYNAMIC EQUILIBRIUM PROPERTIES AT ASSIGNED

                           TEMPERATURE AND PRESSURE

 CASE =                

             REACTANT                    WT FRACTION      ENERGY      TEMP
                                          (SEE NOTE)     KJ/KG-MOL      K  
             H2                           1.0000000         0.000      0.000

 O/F=    0.00000  %FUEL=100.000000  R,EQ.RATIO= 0.000000  PHI,EQ.RATIO= 0.000000

 THERMODYNAMIC PROPERTIES

 P, BAR           0.13200  0.13200  0.13200  0.13200  0.13200  0.13200  0.13200  0.13200
 T, K              210.00   215.00   220.00   225.00   230.00   235.00   240.00   245.00
 RHO, KG/CU M    1.5240-2 1.4886-2 1.4547-2 1.4224-2 1.3915-2 1.3619-2 1.3335-2 1.3063-2
 H, KJ/KG        -1240.00 -1171.25 -1102.24 -1033.00  -963.53  -893.85  -823.97  -753.90
 U, KJ/KG        -2106.15 -2058.01 -2009.63 -1961.01 -1912.16 -1863.11 -1813.85 -1764.40
 G, KJ/KG        -15573.2 -15915.3 -16259.0 -16604.2 -16951.0 -17299.3 -17649.1 -18000.3
 S, KJ/(KG)(K)    68.2533  68.5769  68.8941  69.2053  69.5107  69.8104  70.1047  70.3936

 M, (1/n)           2.016    2.016    2.016    2.016    2.016    2.016    2.016    2.016
 (dLV/dLP)t      -0.99999 -0.99999 -0.99999 -0.99999 -0.99999 -0.99999 -0.99999 -0.99999
 (dLV/dLT)p        1.0000   1.0000   1.0000   1.0000   1.0000   1.0000   1.0000   1.0000
 Cp, KJ/(KG)(K)   13.7251  13.7765  13.8252  13.8715  13.9152  13.9565  13.9954  14.0321
 GAMMAs            1.4296   1.4273   1.4252   1.4232   1.4213   1.4195   1.4179   1.4163
 SON VEL,M/SEC     1112.8   1125.0   1137.2   1149.2   1161.1   1173.0   1184.7   1196.3

 TRANSPORT PROPERTIES (GASES ONLY)
   CONDUCTIVITY IN UNITS OF MILLIWATTS/(CM)(K)

 VISC,MILLIPOISE  0.00000  0.00000  0.00000  0.00000  0.00000  0.00000  0.00000  0.00000

  WITH EQUILIBRIUM REACTIONS

 Cp, KJ/(KG)(K)   13.7251  13.7765  13.8252  13.8715  13.9152  13.9565  13.9954  14.0321
 CONDUCTIVITY      0.0000   0.0000   0.0000   0.0000   0.0000   0.0000   0.0000   0.0000
 PRANDTL NUMBER    2.3795   2.3702   2.3623   2.3558   2.3503   2.3458   2.3421   2.3390

  WITH FROZEN REACTIONS

 Cp, KJ/(KG)(K)   13.7251  13.7765  13.8252  13.8715  13.9152  13.9565  13.9954  14.0321
 CONDUCTIVITY      0.0000   0.0000   0.0000   0.0000   0.0000   0.0000   0.0000   0.0000
 PRANDTL NUMBER    2.3795   2.3702   2.3623   2.3558   2.3503   2.3458   2.3421   2.3390

 MOLE FRACTIONS

 *H2              1.00000  1.00000  1.00000  1.00000  1.00000  1.00000  1.00000  1.00000

  * THERMODYNAMIC PROPERTIES FITTED TO 20000.K

 NOTE. WEIGHT FRACTION OF FUEL IN TOTAL FUELS AND OF OXIDANT IN TOTAL OXIDANTS









               THERMODYNAMIC EQUILIBRIUM PROPERTIES AT ASSIGNED

                           TEMPERATURE AND PRESSURE

 CASE =                

             REACTANT                    WT FRACTION      ENERGY      TEMP
                                          (SEE NOTE)     KJ/KG-MOL      K  
             H2                           1.0000000         0.000      0.000

 O/F=    0.00000  %FUEL=100.000000  R,EQ.RATIO= 0.000000  PHI,EQ.RATIO= 0.000000

 THERMODYNAMIC PROPERTIES

 P, BAR           0.13200  0.13200  0.13200  0.13200  0.13200  0.14800  0.14800  0.14800
 T, K              250.00   255.00   260.00   265.00   270.00   200.00   205.00   210.00
 RHO, KG/CU M    1.2802-2 1.2551-2 1.2309-2 1.2077-2 1.1853-2 1.7942-2 1.7504-2 1.7087-2
 H, KJ/KG         -683.66  -613.24  -542.67  -471.95  -401.09 -1376.71 -1308.50 -1240.00
 U, KJ/KG        -1714.78 -1664.98 -1615.03 -1564.94 -1514.70 -2201.61 -2154.02 -2106.15
 G, KJ/KG        -18353.0 -18707.1 -19062.6 -19419.4 -19777.6 -14799.6 -15136.0 -15474.1
 S, KJ/(KG)(K)    70.6775  70.9563  71.2304  71.4998  71.7647  67.1145  67.4514  67.7814

 M, (1/n)           2.016    2.016    2.016    2.016    2.016    2.016    2.016    2.016
 (dLV/dLP)t      -0.99999 -0.99999 -0.99999 -0.99999 -0.99999 -1.00000 -0.99999 -0.99999
 (dLV/dLT)p        1.0000   1.0000   1.0000   1.0000   1.0000   1.0000   1.0000   1.0000
 Cp, KJ/(KG)(K)   14.0666  14.0990  14.1293  14.1578  14.1845  13.6144  13.6711  13.7251
 GAMMAs            1.4149   1.4135   1.4123   1.4111   1.4100   1.4346   1.4320   1.4296
 SON VEL,M/SEC     1207.8   1219.3   1230.6   1241.9   1253.1   1087.9   1100.4   1112.8

 TRANSPORT PROPERTIES (GASES ONLY)
   CONDUCTIVITY IN UNITS OF MILLIWATTS/(CM)(K)

 VISC,MILLIPOISE  0.00000  0.00000  0.00000  0.00000  0.00000  0.00000  0.00000  0.00000

  WITH EQUILIBRIUM REACTIONS

 Cp, KJ/(KG)(K)   14.0666  14.0990  14.1293  14.1578  14.1845  13.6144  13.6711  13.7251
 CONDUCTIVITY      0.0000   0.0000   0.0000   0.0000   0.0000   0.0000   0.0000   0.0000
 PRANDTL NUMBER    2.3366   2.3346   2.3331   2.3320   2.3311   2.4036   2.3905   2.3795

  WITH FROZEN REACTIONS

 Cp, KJ/(KG)(K)   14.0666  14.0990  14.1293  14.1578  14.1845  13.6144  13.6711  13.7251
 CONDUCTIVITY      0.0000   0.0000   0.0000   0.0000   0.0000   0.0000   0.0000   0.0000
 PRANDTL NUMBER    2.3366   2.3346   2.3331   2.3320   2.3311   2.4036   2.3905   2.3795

 MOLE FRACTIONS

 *H2              1.00000  1.00000  1.00000  1.00000  1.00000  1.00000  1.00000  1.00000

  * THERMODYNAMIC PROPERTIES FITTED TO 20000.K

 NOTE. WEIGHT FRACTION OF FUEL IN TOTAL FUELS AND OF OXIDANT IN TOTAL OXIDANTS









               THERMODYNAMIC EQUILIBRIUM PROPERTIES AT ASSIGNED

                           TEMPERATURE AND PRESSURE

 CASE =                

             REACTANT                    WT FRACTION      ENERGY      TEMP
                                          (SEE NOTE)     KJ/KG-MOL      K  
             H2                           1.0000000         0.000      0.000

 O/F=    0.00000  %FUEL=100.000000  R,EQ.RATIO= 0.000000  PHI,EQ.RATIO= 0.000000

 THERMODYNAMIC PROPERTIES

 P, BAR           0.14800  0.14800  0.14800  0.14800  0.14800  0.14800  0.14800  0.14800
 T, K              215.00   220.00   225.00   230.00   235.00   240.00   245.00   250.00
 RHO, KG/CU M    1.6690-2 1.6311-2 1.5948-2 1.5601-2 1.5269-2 1.4951-2 1.4646-2 1.4353-2
 H, KJ/KG        -1171.25 -1102.24 -1033.00  -963.53  -893.85  -823.97  -753.90  -683.66
 U, KJ/KG        -2058.01 -2009.63 -1961.01 -1912.16 -1863.11 -1813.85 -1764.40 -1714.78
 G, KJ/KG        -15813.8 -16155.1 -16498.0 -16842.5 -17188.4 -17535.8 -17884.7 -18235.0
 S, KJ/(KG)(K)    68.1050  68.4222  68.7335  69.0388  69.3385  69.6328  69.9217  70.2056

 M, (1/n)           2.016    2.016    2.016    2.016    2.016    2.016    2.016    2.016
 (dLV/dLP)t      -0.99999 -0.99999 -0.99999 -0.99999 -0.99999 -0.99999 -0.99999 -0.99999
 (dLV/dLT)p        1.0000   1.0000   1.0000   1.0000   1.0000   1.0000   1.0000   1.0000
 Cp, KJ/(KG)(K)   13.7765  13.8252  13.8715  13.9152  13.9565  13.9954  14.0321  14.0666
 GAMMAs            1.4273   1.4252   1.4232   1.4213   1.4195   1.4179   1.4163   1.4149
 SON VEL,M/SEC     1125.0   1137.2   1149.2   1161.1   1173.0   1184.7   1196.3   1207.8

 TRANSPORT PROPERTIES (GASES ONLY)
   CONDUCTIVITY IN UNITS OF MILLIWATTS/(CM)(K)

 VISC,MILLIPOISE  0.00000  0.00000  0.00000  0.00000  0.00000  0.00000  0.00000  0.00000

  WITH EQUILIBRIUM REACTIONS

 Cp, KJ/(KG)(K)   13.7765  13.8252  13.8715  13.9152  13.9565  13.9954  14.0321  14.0666
 CONDUCTIVITY      0.0000   0.0000   0.0000   0.0000   0.0000   0.0000   0.0000   0.0000
 PRANDTL NUMBER    2.3702   2.3623   2.3558   2.3503   2.3458   2.3421   2.3390   2.3366

  WITH FROZEN REACTIONS

 Cp, KJ/(KG)(K)   13.7765  13.8252  13.8715  13.9152  13.9565  13.9954  14.0321  14.0666
 CONDUCTIVITY      0.0000   0.0000   0.0000   0.0000   0.0000   0.0000   0.0000   0.0000
 PRANDTL NUMBER    2.3702   2.3623   2.3558   2.3503   2.3458   2.3421   2.3390   2.3366

 MOLE FRACTIONS

 *H2              1.00000  1.00000  1.00000  1.00000  1.00000  1.00000  1.00000  1.00000

  * THERMODYNAMIC PROPERTIES FITTED TO 20000.K

 NOTE. WEIGHT FRACTION OF FUEL IN TOTAL FUELS AND OF OXIDANT IN TOTAL OXIDANTS









               THERMODYNAMIC EQUILIBRIUM PROPERTIES AT ASSIGNED

                           TEMPERATURE AND PRESSURE

 CASE =                

             REACTANT                    WT FRACTION      ENERGY      TEMP
                                          (SEE NOTE)     KJ/KG-MOL      K  
             H2                           1.0000000         0.000      0.000

 O/F=    0.00000  %FUEL=100.000000  R,EQ.RATIO= 0.000000  PHI,EQ.RATIO= 0.000000

 THERMODYNAMIC PROPERTIES

 P, BAR           0.14800  0.14800  0.14800  0.14800  0.16500  0.16500  0.16500  0.16500
 T, K              255.00   260.00   265.00   270.00   200.00   205.00   210.00   215.00
 RHO, KG/CU M    1.4072-2 1.3801-2 1.3541-2 1.3290-2 2.0002-2 1.9515-2 1.9050-2 1.8607-2
 H, KJ/KG         -613.24  -542.67  -471.95  -401.09 -1376.71 -1308.50 -1240.00 -1171.25
 U, KJ/KG        -1664.98 -1615.03 -1564.94 -1514.70 -2201.61 -2154.02 -2106.15 -2058.01
 G, KJ/KG        -18586.8 -18939.9 -19294.4 -19650.2 -14709.9 -15044.1 -15379.9 -15717.4
 S, KJ/(KG)(K)    70.4844  70.7585  71.0279  71.2928  66.6661  67.0029  67.3329  67.6565

 M, (1/n)           2.016    2.016    2.016    2.016    2.016    2.016    2.016    2.016
 (dLV/dLP)t      -0.99999 -0.99999 -0.99999 -0.99999 -1.00000 -0.99999 -0.99999 -0.99999
 (dLV/dLT)p        1.0000   1.0000   1.0000   1.0000   1.0000   1.0000   1.0000   1.0000
 Cp, KJ/(KG)(K)   14.0990  14.1293  14.1578  14.1845  13.6144  13.6711  13.7251  13.7765
 GAMMAs            1.4135   1.4123   1.4111   1.4100   1.4346   1.4320   1.4296   1.4273
 SON VEL,M/SEC     1219.3   1230.6   1241.9   1253.1   1087.9   1100.4   1112.8   1125.0

 TRANSPORT PROPERTIES (GASES ONLY)
   CONDUCTIVITY IN UNITS OF MILLIWATTS/(CM)(K)

 VISC,MILLIPOISE  0.00000  0.00000  0.00000  0.00000  0.00000  0.00000  0.00000  0.00000

  WITH EQUILIBRIUM REACTIONS

 Cp, KJ/(KG)(K)   14.0990  14.1293  14.1578  14.1845  13.6144  13.6711  13.7251  13.7765
 CONDUCTIVITY      0.0000   0.0000   0.0000   0.0000   0.0000   0.0000   0.0000   0.0000
 PRANDTL NUMBER    2.3346   2.3331   2.3320   2.3311   2.4036   2.3905   2.3795   2.3702

  WITH FROZEN REACTIONS

 Cp, KJ/(KG)(K)   14.0990  14.1293  14.1578  14.1845  13.6144  13.6711  13.7251  13.7765
 CONDUCTIVITY      0.0000   0.0000   0.0000   0.0000   0.0000   0.0000   0.0000   0.0000
 PRANDTL NUMBER    2.3346   2.3331   2.3320   2.3311   2.4036   2.3905   2.3795   2.3702

 MOLE FRACTIONS

 *H2              1.00000  1.00000  1.00000  1.00000  1.00000  1.00000  1.00000  1.00000

  * THERMODYNAMIC PROPERTIES FITTED TO 20000.K

 NOTE. WEIGHT FRACTION OF FUEL IN TOTAL FUELS AND OF OXIDANT IN TOTAL OXIDANTS









               THERMODYNAMIC EQUILIBRIUM PROPERTIES AT ASSIGNED

                           TEMPERATURE AND PRESSURE

 CASE =                

             REACTANT                    WT FRACTION      ENERGY      TEMP
                                          (SEE NOTE)     KJ/KG-MOL      K  
             H2                           1.0000000         0.000      0.000

 O/F=    0.00000  %FUEL=100.000000  R,EQ.RATIO= 0.000000  PHI,EQ.RATIO= 0.000000

 THERMODYNAMIC PROPERTIES

 P, BAR           0.16500  0.16500  0.16500  0.16500  0.16500  0.16500  0.16500  0.16500
 T, K              220.00   225.00   230.00   235.00   240.00   245.00   250.00   255.00
 RHO, KG/CU M    1.8184-2 1.7780-2 1.7393-2 1.7023-2 1.6669-2 1.6329-2 1.6002-2 1.5688-2
 H, KJ/KG        -1102.24 -1033.00  -963.53  -893.85  -823.97  -753.90  -683.66  -613.24
 U, KJ/KG        -2009.63 -1961.01 -1912.16 -1863.11 -1813.85 -1764.40 -1714.78 -1664.98
 G, KJ/KG        -16056.5 -16397.1 -16739.3 -17083.0 -17428.2 -17774.9 -18122.9 -18472.4
 S, KJ/(KG)(K)    67.9738  68.2850  68.5904  68.8901  69.1843  69.4733  69.7571  70.0360

 M, (1/n)           2.016    2.016    2.016    2.016    2.016    2.016    2.016    2.016
 (dLV/dLP)t      -0.99999 -0.99999 -0.99999 -0.99999 -0.99999 -0.99999 -0.99999 -0.99999
 (dLV/dLT)p        1.0000   1.0000   1.0000   1.0000   1.0000   1.0000   1.0000   1.0000
 Cp, KJ/(KG)(K)   13.8252  13.8715  13.9152  13.9565  13.9954  14.0321  14.0666  14.0990
 GAMMAs            1.4252   1.4232   1.4213   1.4195   1.4179   1.4163   1.4149   1.4135
 SON VEL,M/SEC     1137.2   1149.2   1161.1   1173.0   1184.7   1196.3   1207.8   1219.3

 TRANSPORT PROPERTIES (GASES ONLY)
   CONDUCTIVITY IN UNITS OF MILLIWATTS/(CM)(K)

 VISC,MILLIPOISE  0.00000  0.00000  0.00000  0.00000  0.00000  0.00000  0.00000  0.00000

  WITH EQUILIBRIUM REACTIONS

 Cp, KJ/(KG)(K)   13.8252  13.8715  13.9152  13.9565  13.9954  14.0321  14.0666  14.0990
 CONDUCTIVITY      0.0000   0.0000   0.0000   0.0000   0.0000   0.0000   0.0000   0.0000
 PRANDTL NUMBER    2.3623   2.3558   2.3503   2.3458   2.3421   2.3390   2.3366   2.3346

  WITH FROZEN REACTIONS

 Cp, KJ/(KG)(K)   13.8252  13.8715  13.9152  13.9565  13.9954  14.0321  14.0666  14.0990
 CONDUCTIVITY      0.0000   0.0000   0.0000   0.0000   0.0000   0.0000   0.0000   0.0000
 PRANDTL NUMBER    2.3623   2.3558   2.3503   2.3458   2.3421   2.3390   2.3366   2.3346

 MOLE FRACTIONS

 *H2              1.00000  1.00000  1.00000  1.00000  1.00000  1.00000  1.00000  1.00000

  * THERMODYNAMIC PROPERTIES FITTED TO 20000.K

 NOTE. WEIGHT FRACTION OF FUEL IN TOTAL FUELS AND OF OXIDANT IN TOTAL OXIDANTS









               THERMODYNAMIC EQUILIBRIUM PROPERTIES AT ASSIGNED

                           TEMPERATURE AND PRESSURE

 CASE =                

             REACTANT                    WT FRACTION      ENERGY      TEMP
                                          (SEE NOTE)     KJ/KG-MOL      K  
             H2                           1.0000000         0.000      0.000

 O/F=    0.00000  %FUEL=100.000000  R,EQ.RATIO= 0.000000  PHI,EQ.RATIO= 0.000000

 THERMODYNAMIC PROPERTIES

 P, BAR           0.16500  0.16500  0.16500  0.18000  0.18000  0.18000  0.18000  0.18000
 T, K              260.00   265.00   270.00   200.00   205.00   210.00   215.00   220.00
 RHO, KG/CU M    1.5387-2 1.5096-2 1.4817-2 2.1821-2 2.1289-2 2.0782-2 2.0299-2 1.9837-2
 H, KJ/KG         -542.67  -471.95  -401.09 -1376.71 -1308.50 -1240.00 -1171.25 -1102.24
 U, KJ/KG        -1615.03 -1564.94 -1514.70 -2201.61 -2154.02 -2106.15 -2058.01 -2009.63
 G, KJ/KG        -18823.3 -19175.5 -19529.1 -14638.1 -14970.5 -15304.6 -15640.2 -15977.5
 S, KJ/(KG)(K)    70.3101  70.5795  70.8444  66.3072  66.6440  66.9741  67.2976  67.6149

 M, (1/n)           2.016    2.016    2.016    2.016    2.016    2.016    2.016    2.016
 (dLV/dLP)t      -0.99999 -0.99999 -0.99999 -1.00000 -0.99999 -0.99999 -0.99999 -0.99999
 (dLV/dLT)p        1.0000   1.0000   1.0000   1.0000   1.0000   1.0000   1.0000   1.0000
 Cp, KJ/(KG)(K)   14.1293  14.1578  14.1845  13.6144  13.6711  13.7251  13.7765  13.8252
 GAMMAs            1.4123   1.4111   1.4100   1.4346   1.4320   1.4296   1.4273   1.4252
 SON VEL,M/SEC     1230.6   1241.9   1253.1   1087.9   1100.4   1112.8   1125.0   1137.2

 TRANSPORT PROPERTIES (GASES ONLY)
   CONDUCTIVITY IN UNITS OF MILLIWATTS/(CM)(K)

 VISC,MILLIPOISE  0.00000  0.00000  0.00000  0.00000  0.00000  0.00000  0.00000  0.00000

  WITH EQUILIBRIUM REACTIONS

 Cp, KJ/(KG)(K)   14.1293  14.1578  14.1845  13.6144  13.6711  13.7251  13.7765  13.8252
 CONDUCTIVITY      0.0000   0.0000   0.0000   0.0000   0.0000   0.0000   0.0000   0.0000
 PRANDTL NUMBER    2.3331   2.3320   2.3311   2.4036   2.3905   2.3795   2.3702   2.3623

  WITH FROZEN REACTIONS

 Cp, KJ/(KG)(K)   14.1293  14.1578  14.1845  13.6144  13.6711  13.7251  13.7765  13.8252
 CONDUCTIVITY      0.0000   0.0000   0.0000   0.0000   0.0000   0.0000   0.0000   0.0000
 PRANDTL NUMBER    2.3331   2.3320   2.3311   2.4036   2.3905   2.3795   2.3702   2.3623

 MOLE FRACTIONS

 *H2              1.00000  1.00000  1.00000  1.00000  1.00000  1.00000  1.00000  1.00000

  * THERMODYNAMIC PROPERTIES FITTED TO 20000.K

 NOTE. WEIGHT FRACTION OF FUEL IN TOTAL FUELS AND OF OXIDANT IN TOTAL OXIDANTS









               THERMODYNAMIC EQUILIBRIUM PROPERTIES AT ASSIGNED

                           TEMPERATURE AND PRESSURE

 CASE =                

             REACTANT                    WT FRACTION      ENERGY      TEMP
                                          (SEE NOTE)     KJ/KG-MOL      K  
             H2                           1.0000000         0.000      0.000

 O/F=    0.00000  %FUEL=100.000000  R,EQ.RATIO= 0.000000  PHI,EQ.RATIO= 0.000000

 THERMODYNAMIC PROPERTIES

 P, BAR           0.18000  0.18000  0.18000  0.18000  0.18000  0.18000  0.18000  0.18000
 T, K              225.00   230.00   235.00   240.00   245.00   250.00   255.00   260.00
 RHO, KG/CU M    1.9396-2 1.8975-2 1.8571-2 1.8184-2 1.7813-2 1.7457-2 1.7114-2 1.6785-2
 H, KJ/KG        -1033.00  -963.53  -893.85  -823.97  -753.90  -683.66  -613.24  -542.67
 U, KJ/KG        -1961.01 -1912.16 -1863.11 -1813.85 -1764.40 -1714.78 -1664.98 -1615.03
 G, KJ/KG        -16316.4 -16656.8 -16998.7 -17342.1 -17686.9 -18033.2 -18380.9 -18730.0
 S, KJ/(KG)(K)    67.9261  68.2315  68.5312  68.8254  69.1144  69.3982  69.6771  69.9512

 M, (1/n)           2.016    2.016    2.016    2.016    2.016    2.016    2.016    2.016
 (dLV/dLP)t      -0.99999 -0.99999 -0.99999 -0.99999 -0.99999 -0.99999 -0.99999 -0.99999
 (dLV/dLT)p        1.0000   1.0000   1.0000   1.0000   1.0000   1.0000   1.0000   1.0000
 Cp, KJ/(KG)(K)   13.8715  13.9152  13.9565  13.9954  14.0321  14.0666  14.0990  14.1293
 GAMMAs            1.4232   1.4213   1.4195   1.4179   1.4163   1.4149   1.4135   1.4123
 SON VEL,M/SEC     1149.2   1161.1   1173.0   1184.7   1196.3   1207.8   1219.3   1230.6

 TRANSPORT PROPERTIES (GASES ONLY)
   CONDUCTIVITY IN UNITS OF MILLIWATTS/(CM)(K)

 VISC,MILLIPOISE  0.00000  0.00000  0.00000  0.00000  0.00000  0.00000  0.00000  0.00000

  WITH EQUILIBRIUM REACTIONS

 Cp, KJ/(KG)(K)   13.8715  13.9152  13.9565  13.9954  14.0321  14.0666  14.0990  14.1293
 CONDUCTIVITY      0.0000   0.0000   0.0000   0.0000   0.0000   0.0000   0.0000   0.0000
 PRANDTL NUMBER    2.3558   2.3503   2.3458   2.3421   2.3390   2.3366   2.3346   2.3331

  WITH FROZEN REACTIONS

 Cp, KJ/(KG)(K)   13.8715  13.9152  13.9565  13.9954  14.0321  14.0666  14.0990  14.1293
 CONDUCTIVITY      0.0000   0.0000   0.0000   0.0000   0.0000   0.0000   0.0000   0.0000
 PRANDTL NUMBER    2.3558   2.3503   2.3458   2.3421   2.3390   2.3366   2.3346   2.3331

 MOLE FRACTIONS

 *H2              1.00000  1.00000  1.00000  1.00000  1.00000  1.00000  1.00000  1.00000

  * THERMODYNAMIC PROPERTIES FITTED TO 20000.K

 NOTE. WEIGHT FRACTION OF FUEL IN TOTAL FUELS AND OF OXIDANT IN TOTAL OXIDANTS









               THERMODYNAMIC EQUILIBRIUM PROPERTIES AT ASSIGNED

                           TEMPERATURE AND PRESSURE

 CASE =                

             REACTANT                    WT FRACTION      ENERGY      TEMP
                                          (SEE NOTE)     KJ/KG-MOL      K  
             H2                           1.0000000         0.000      0.000

 O/F=    0.00000  %FUEL=100.000000  R,EQ.RATIO= 0.000000  PHI,EQ.RATIO= 0.000000

 THERMODYNAMIC PROPERTIES

 P, BAR           0.18000  0.18000  0.20000  0.20000  0.20000  0.20000  0.20000  0.20000
 T, K              265.00   270.00   200.00   205.00   210.00   215.00   220.00   225.00
 RHO, KG/CU M    1.6469-2 1.6164-2 2.4245-2 2.3654-2 2.3091-2 2.2554-2 2.2041-2 2.1552-2
 H, KJ/KG         -471.95  -401.09 -1376.71 -1308.50 -1240.00 -1171.25 -1102.24 -1033.00
 U, KJ/KG        -1564.94 -1514.70 -2201.61 -2154.02 -2106.15 -2058.01 -2009.63 -1961.01
 G, KJ/KG        -19080.4 -19432.2 -14551.2 -14881.4 -15213.3 -15546.8 -15881.9 -16218.6
 S, KJ/(KG)(K)    70.2206  70.4855  65.8726  66.2094  66.5395  66.8631  67.1803  67.4916

 M, (1/n)           2.016    2.016    2.016    2.016    2.016    2.016    2.016    2.016
 (dLV/dLP)t      -0.99999 -0.99999 -1.00000 -0.99999 -0.99999 -0.99999 -0.99999 -0.99999
 (dLV/dLT)p        1.0000   1.0000   1.0000   1.0000   1.0000   1.0000   1.0000   1.0000
 Cp, KJ/(KG)(K)   14.1578  14.1845  13.6144  13.6711  13.7251  13.7765  13.8252  13.8715
 GAMMAs            1.4111   1.4100   1.4346   1.4320   1.4296   1.4273   1.4252   1.4232
 SON VEL,M/SEC     1241.9   1253.1   1087.9   1100.4   1112.8   1125.0   1137.2   1149.2

 TRANSPORT PROPERTIES (GASES ONLY)
   CONDUCTIVITY IN UNITS OF MILLIWATTS/(CM)(K)

 VISC,MILLIPOISE  0.00000  0.00000  0.00000  0.00000  0.00000  0.00000  0.00000  0.00000

  WITH EQUILIBRIUM REACTIONS

 Cp, KJ/(KG)(K)   14.1578  14.1845  13.6144  13.6711  13.7251  13.7765  13.8252  13.8715
 CONDUCTIVITY      0.0000   0.0000   0.0000   0.0000   0.0000   0.0000   0.0000   0.0000
 PRANDTL NUMBER    2.3320   2.3311   2.4036   2.3905   2.3795   2.3702   2.3623   2.3558

  WITH FROZEN REACTIONS

 Cp, KJ/(KG)(K)   14.1578  14.1845  13.6144  13.6711  13.7251  13.7765  13.8252  13.8715
 CONDUCTIVITY      0.0000   0.0000   0.0000   0.0000   0.0000   0.0000   0.0000   0.0000
 PRANDTL NUMBER    2.3320   2.3311   2.4036   2.3905   2.3795   2.3702   2.3623   2.3558

 MOLE FRACTIONS

 *H2              1.00000  1.00000  1.00000  1.00000  1.00000  1.00000  1.00000  1.00000

  * THERMODYNAMIC PROPERTIES FITTED TO 20000.K

 NOTE. WEIGHT FRACTION OF FUEL IN TOTAL FUELS AND OF OXIDANT IN TOTAL OXIDANTS









               THERMODYNAMIC EQUILIBRIUM PROPERTIES AT ASSIGNED

                           TEMPERATURE AND PRESSURE

 CASE =                

             REACTANT                    WT FRACTION      ENERGY      TEMP
                                          (SEE NOTE)     KJ/KG-MOL      K  
             H2                           1.0000000         0.000      0.000

 O/F=    0.00000  %FUEL=100.000000  R,EQ.RATIO= 0.000000  PHI,EQ.RATIO= 0.000000

 THERMODYNAMIC PROPERTIES

 P, BAR           0.20000  0.20000  0.20000  0.20000  0.20000  0.20000  0.20000  0.20000
 T, K              230.00   235.00   240.00   245.00   250.00   255.00   260.00   265.00
 RHO, KG/CU M    2.1083-2 2.0634-2 2.0205-2 1.9792-2 1.9396-2 1.9016-2 1.8650-2 1.8298-2
 H, KJ/KG         -963.53  -893.85  -823.97  -753.90  -683.66  -613.24  -542.67  -471.95
 U, KJ/KG        -1912.16 -1863.11 -1813.85 -1764.40 -1714.78 -1664.98 -1615.03 -1564.94
 G, KJ/KG        -16556.8 -16896.6 -17237.8 -17580.5 -17924.6 -18270.1 -18617.0 -18965.2
 S, KJ/(KG)(K)    67.7969  68.0966  68.3909  68.6798  68.9637  69.2425  69.5166  69.7860

 M, (1/n)           2.016    2.016    2.016    2.016    2.016    2.016    2.016    2.016
 (dLV/dLP)t      -0.99999 -0.99999 -0.99999 -0.99999 -0.99999 -0.99999 -0.99999 -0.99999
 (dLV/dLT)p        1.0000   1.0000   1.0000   1.0000   1.0000   1.0000   1.0000   1.0000
 Cp, KJ/(KG)(K)   13.9152  13.9565  13.9954  14.0321  14.0666  14.0990  14.1293  14.1578
 GAMMAs            1.4213   1.4195   1.4179   1.4163   1.4149   1.4135   1.4123   1.4111
 SON VEL,M/SEC     1161.1   1173.0   1184.7   1196.3   1207.8   1219.3   1230.6   1241.9

 TRANSPORT PROPERTIES (GASES ONLY)
   CONDUCTIVITY IN UNITS OF MILLIWATTS/(CM)(K)

 VISC,MILLIPOISE  0.00000  0.00000  0.00000  0.00000  0.00000  0.00000  0.00000  0.00000

  WITH EQUILIBRIUM REACTIONS

 Cp, KJ/(KG)(K)   13.9152  13.9565  13.9954  14.0321  14.0666  14.0990  14.1293  14.1578
 CONDUCTIVITY      0.0000   0.0000   0.0000   0.0000   0.0000   0.0000   0.0000   0.0000
 PRANDTL NUMBER    2.3503   2.3458   2.3421   2.3390   2.3366   2.3346   2.3331   2.3320

  WITH FROZEN REACTIONS

 Cp, KJ/(KG)(K)   13.9152  13.9565  13.9954  14.0321  14.0666  14.0990  14.1293  14.1578
 CONDUCTIVITY      0.0000   0.0000   0.0000   0.0000   0.0000   0.0000   0.0000   0.0000
 PRANDTL NUMBER    2.3503   2.3458   2.3421   2.3390   2.3366   2.3346   2.3331   2.3320

 MOLE FRACTIONS

 *H2              1.00000  1.00000  1.00000  1.00000  1.00000  1.00000  1.00000  1.00000

  * THERMODYNAMIC PROPERTIES FITTED TO 20000.K

 NOTE. WEIGHT FRACTION OF FUEL IN TOTAL FUELS AND OF OXIDANT IN TOTAL OXIDANTS









               THERMODYNAMIC EQUILIBRIUM PROPERTIES AT ASSIGNED

                           TEMPERATURE AND PRESSURE

 CASE =                

             REACTANT                    WT FRACTION      ENERGY      TEMP
                                          (SEE NOTE)     KJ/KG-MOL      K  
             H2                           1.0000000         0.000      0.000

 O/F=    0.00000  %FUEL=100.000000  R,EQ.RATIO= 0.000000  PHI,EQ.RATIO= 0.000000

 THERMODYNAMIC PROPERTIES

 P, BAR           0.20000  0.22500  0.22500  0.22500  0.22500  0.22500  0.22500  0.22500
 T, K              270.00   200.00   205.00   210.00   215.00   220.00   225.00   230.00
 RHO, KG/CU M    1.7960-2 2.7276-2 2.6611-2 2.5977-2 2.5373-2 2.4796-2 2.4245-2 2.3718-2
 H, KJ/KG         -401.09 -1376.71 -1308.50 -1240.00 -1171.25 -1102.24 -1033.00  -963.53
 U, KJ/KG        -1514.70 -2201.61 -2154.02 -2106.15 -2058.01 -2009.63 -1961.01 -1912.16
 G, KJ/KG        -19314.8 -14454.1 -14781.8 -15111.3 -15442.4 -15775.0 -16109.3 -16445.1
 S, KJ/(KG)(K)    70.0509  65.3868  65.7236  66.0537  66.3773  66.6945  67.0058  67.3111

 M, (1/n)           2.016    2.016    2.016    2.016    2.016    2.016    2.016    2.016
 (dLV/dLP)t      -0.99999 -1.00000 -0.99999 -0.99999 -0.99999 -0.99999 -0.99999 -0.99999
 (dLV/dLT)p        1.0000   1.0000   1.0000   1.0000   1.0000   1.0000   1.0000   1.0000
 Cp, KJ/(KG)(K)   14.1845  13.6144  13.6711  13.7251  13.7765  13.8252  13.8715  13.9152
 GAMMAs            1.4100   1.4346   1.4320   1.4296   1.4273   1.4252   1.4232   1.4213
 SON VEL,M/SEC     1253.1   1087.9   1100.4   1112.8   1125.0   1137.2   1149.2   1161.1

 TRANSPORT PROPERTIES (GASES ONLY)
   CONDUCTIVITY IN UNITS OF MILLIWATTS/(CM)(K)

 VISC,MILLIPOISE  0.00000  0.00000  0.00000  0.00000  0.00000  0.00000  0.00000  0.00000

  WITH EQUILIBRIUM REACTIONS

 Cp, KJ/(KG)(K)   14.1845  13.6144  13.6711  13.7251  13.7765  13.8252  13.8715  13.9152
 CONDUCTIVITY      0.0000   0.0000   0.0000   0.0000   0.0000   0.0000   0.0000   0.0000
 PRANDTL NUMBER    2.3311   2.4036   2.3905   2.3795   2.3702   2.3623   2.3558   2.3503

  WITH FROZEN REACTIONS

 Cp, KJ/(KG)(K)   14.1845  13.6144  13.6711  13.7251  13.7765  13.8252  13.8715  13.9152
 CONDUCTIVITY      0.0000   0.0000   0.0000   0.0000   0.0000   0.0000   0.0000   0.0000
 PRANDTL NUMBER    2.3311   2.4036   2.3905   2.3795   2.3702   2.3623   2.3558   2.3503

 MOLE FRACTIONS

 *H2              1.00000  1.00000  1.00000  1.00000  1.00000  1.00000  1.00000  1.00000

  * THERMODYNAMIC PROPERTIES FITTED TO 20000.K

 NOTE. WEIGHT FRACTION OF FUEL IN TOTAL FUELS AND OF OXIDANT IN TOTAL OXIDANTS









               THERMODYNAMIC EQUILIBRIUM PROPERTIES AT ASSIGNED

                           TEMPERATURE AND PRESSURE

 CASE =                

             REACTANT                    WT FRACTION      ENERGY      TEMP
                                          (SEE NOTE)     KJ/KG-MOL      K  
             H2                           1.0000000         0.000      0.000

 O/F=    0.00000  %FUEL=100.000000  R,EQ.RATIO= 0.000000  PHI,EQ.RATIO= 0.000000

 THERMODYNAMIC PROPERTIES

 P, BAR           0.22500  0.22500  0.22500  0.22500  0.22500  0.22500  0.22500  0.22500
 T, K              235.00   240.00   245.00   250.00   255.00   260.00   265.00   270.00
 RHO, KG/CU M    2.3214-2 2.2730-2 2.2266-2 2.1821-2 2.1393-2 2.0982-2 2.0586-2 2.0205-2
 H, KJ/KG         -893.85  -823.97  -753.90  -683.66  -613.24  -542.67  -471.95  -401.09
 U, KJ/KG        -1863.11 -1813.85 -1764.40 -1714.78 -1664.98 -1615.03 -1564.94 -1514.70
 G, KJ/KG        -16782.4 -17121.2 -17461.4 -17803.1 -18146.2 -18490.7 -18836.5 -19183.7
 S, KJ/(KG)(K)    67.6108  67.9051  68.1940  68.4779  68.7567  69.0308  69.3002  69.5651

 M, (1/n)           2.016    2.016    2.016    2.016    2.016    2.016    2.016    2.016
 (dLV/dLP)t      -0.99999 -0.99999 -0.99999 -0.99999 -0.99999 -0.99999 -0.99999 -0.99999
 (dLV/dLT)p        1.0000   1.0000   1.0000   1.0000   1.0000   1.0000   1.0000   1.0000
 Cp, KJ/(KG)(K)   13.9565  13.9954  14.0321  14.0666  14.0990  14.1293  14.1578  14.1845
 GAMMAs            1.4195   1.4179   1.4163   1.4149   1.4135   1.4123   1.4111   1.4100
 SON VEL,M/SEC     1173.0   1184.7   1196.3   1207.8   1219.3   1230.6   1241.9   1253.1

 TRANSPORT PROPERTIES (GASES ONLY)
   CONDUCTIVITY IN UNITS OF MILLIWATTS/(CM)(K)

 VISC,MILLIPOISE  0.00000  0.00000  0.00000  0.00000  0.00000  0.00000  0.00000  0.00000

  WITH EQUILIBRIUM REACTIONS

 Cp, KJ/(KG)(K)   13.9565  13.9954  14.0321  14.0666  14.0990  14.1293  14.1578  14.1845
 CONDUCTIVITY      0.0000   0.0000   0.0000   0.0000   0.0000   0.0000   0.0000   0.0000
 PRANDTL NUMBER    2.3458   2.3421   2.3390   2.3366   2.3346   2.3331   2.3320   2.3311

  WITH FROZEN REACTIONS

 Cp, KJ/(KG)(K)   13.9565  13.9954  14.0321  14.0666  14.0990  14.1293  14.1578  14.1845
 CONDUCTIVITY      0.0000   0.0000   0.0000   0.0000   0.0000   0.0000   0.0000   0.0000
 PRANDTL NUMBER    2.3458   2.3421   2.3390   2.3366   2.3346   2.3331   2.3320   2.3311

 MOLE FRACTIONS

 *H2              1.00000  1.00000  1.00000  1.00000  1.00000  1.00000  1.00000  1.00000

  * THERMODYNAMIC PROPERTIES FITTED TO 20000.K

 NOTE. WEIGHT FRACTION OF FUEL IN TOTAL FUELS AND OF OXIDANT IN TOTAL OXIDANTS









               THERMODYNAMIC EQUILIBRIUM PROPERTIES AT ASSIGNED

                           TEMPERATURE AND PRESSURE

 CASE =                

             REACTANT                    WT FRACTION      ENERGY      TEMP
                                          (SEE NOTE)     KJ/KG-MOL      K  
             H2                           1.0000000         0.000      0.000

 O/F=    0.00000  %FUEL=100.000000  R,EQ.RATIO= 0.000000  PHI,EQ.RATIO= 0.000000

 THERMODYNAMIC PROPERTIES

 P, BAR           0.25000  0.25000  0.25000  0.25000  0.25000  0.25000  0.25000  0.25000
 T, K              200.00   205.00   210.00   215.00   220.00   225.00   230.00   235.00
 RHO, KG/CU M    3.0307-2 2.9568-2 2.8864-2 2.8192-2 2.7552-2 2.6939-2 2.6354-2 2.5793-2
 H, KJ/KG        -1376.71 -1308.50 -1240.00 -1171.25 -1102.24 -1033.00  -963.53  -893.85
 U, KJ/KG        -2201.61 -2154.02 -2106.15 -2058.01 -2009.63 -1961.01 -1912.16 -1863.11
 G, KJ/KG        -14367.2 -14692.8 -15020.0 -15348.9 -15679.4 -16011.5 -16345.1 -16680.3
 S, KJ/(KG)(K)    64.9523  65.2891  65.6192  65.9427  66.2600  66.5712  66.8766  67.1763

 M, (1/n)           2.016    2.016    2.016    2.016    2.016    2.016    2.016    2.016
 (dLV/dLP)t      -1.00000 -0.99999 -0.99999 -0.99999 -0.99999 -0.99999 -0.99999 -0.99999
 (dLV/dLT)p        1.0000   1.0000   1.0000   1.0000   1.0000   1.0000   1.0000   1.0000
 Cp, KJ/(KG)(K)   13.6144  13.6711  13.7251  13.7765  13.8252  13.8715  13.9152  13.9565
 GAMMAs            1.4346   1.4320   1.4296   1.4273   1.4252   1.4232   1.4213   1.4195
 SON VEL,M/SEC     1087.9   1100.4   1112.8   1125.0   1137.2   1149.2   1161.1   1173.0

 TRANSPORT PROPERTIES (GASES ONLY)
   CONDUCTIVITY IN UNITS OF MILLIWATTS/(CM)(K)

 VISC,MILLIPOISE  0.00000  0.00000  0.00000  0.00000  0.00000  0.00000  0.00000  0.00000

  WITH EQUILIBRIUM REACTIONS

 Cp, KJ/(KG)(K)   13.6144  13.6711  13.7251  13.7765  13.8252  13.8715  13.9152  13.9565
 CONDUCTIVITY      0.0000   0.0000   0.0000   0.0000   0.0000   0.0000   0.0000   0.0000
 PRANDTL NUMBER    2.4036   2.3905   2.3795   2.3702   2.3623   2.3558   2.3503   2.3458

  WITH FROZEN REACTIONS

 Cp, KJ/(KG)(K)   13.6144  13.6711  13.7251  13.7765  13.8252  13.8715  13.9152  13.9565
 CONDUCTIVITY      0.0000   0.0000   0.0000   0.0000   0.0000   0.0000   0.0000   0.0000
 PRANDTL NUMBER    2.4036   2.3905   2.3795   2.3702   2.3623   2.3558   2.3503   2.3458

 MOLE FRACTIONS

 *H2              1.00000  1.00000  1.00000  1.00000  1.00000  1.00000  1.00000  1.00000

  * THERMODYNAMIC PROPERTIES FITTED TO 20000.K

 NOTE. WEIGHT FRACTION OF FUEL IN TOTAL FUELS AND OF OXIDANT IN TOTAL OXIDANTS









               THERMODYNAMIC EQUILIBRIUM PROPERTIES AT ASSIGNED

                           TEMPERATURE AND PRESSURE

 CASE =                

             REACTANT                    WT FRACTION      ENERGY      TEMP
                                          (SEE NOTE)     KJ/KG-MOL      K  
             H2                           1.0000000         0.000      0.000

 O/F=    0.00000  %FUEL=100.000000  R,EQ.RATIO= 0.000000  PHI,EQ.RATIO= 0.000000

 THERMODYNAMIC PROPERTIES

 P, BAR           0.25000  0.25000  0.25000  0.25000  0.25000  0.25000  0.25000  0.28000
 T, K              240.00   245.00   250.00   255.00   260.00   265.00   270.00   200.00
 RHO, KG/CU M    2.5256-2 2.4740-2 2.4245-2 2.3770-2 2.3313-2 2.2873-2 2.2450-2 3.3944-2
 H, KJ/KG         -823.97  -753.90  -683.66  -613.24  -542.67  -471.95  -401.09 -1376.71
 U, KJ/KG        -1813.85 -1764.40 -1714.78 -1664.98 -1615.03 -1564.94 -1514.70 -2201.61
 G, KJ/KG        -17016.9 -17355.0 -17694.5 -18035.4 -18377.7 -18721.4 -19066.3 -14273.7
 S, KJ/(KG)(K)    67.4705  67.7595  68.0433  68.3222  68.5963  68.8657  69.1306  64.4848

 M, (1/n)           2.016    2.016    2.016    2.016    2.016    2.016    2.016    2.016
 (dLV/dLP)t      -0.99999 -0.99999 -0.99999 -0.99999 -0.99999 -0.99999 -0.99999 -1.00000
 (dLV/dLT)p        1.0000   1.0000   1.0000   1.0000   1.0000   1.0000   1.0000   1.0000
 Cp, KJ/(KG)(K)   13.9954  14.0321  14.0666  14.0990  14.1293  14.1578  14.1845  13.6144
 GAMMAs            1.4179   1.4163   1.4149   1.4135   1.4123   1.4111   1.4100   1.4346
 SON VEL,M/SEC     1184.7   1196.3   1207.8   1219.3   1230.6   1241.9   1253.1   1087.9

 TRANSPORT PROPERTIES (GASES ONLY)
   CONDUCTIVITY IN UNITS OF MILLIWATTS/(CM)(K)

 VISC,MILLIPOISE  0.00000  0.00000  0.00000  0.00000  0.00000  0.00000  0.00000  0.00000

  WITH EQUILIBRIUM REACTIONS

 Cp, KJ/(KG)(K)   13.9954  14.0321  14.0666  14.0990  14.1293  14.1578  14.1845  13.6144
 CONDUCTIVITY      0.0000   0.0000   0.0000   0.0000   0.0000   0.0000   0.0000   0.0000
 PRANDTL NUMBER    2.3421   2.3390   2.3366   2.3346   2.3331   2.3320   2.3311   2.4036

  WITH FROZEN REACTIONS

 Cp, KJ/(KG)(K)   13.9954  14.0321  14.0666  14.0990  14.1293  14.1578  14.1845  13.6144
 CONDUCTIVITY      0.0000   0.0000   0.0000   0.0000   0.0000   0.0000   0.0000   0.0000
 PRANDTL NUMBER    2.3421   2.3390   2.3366   2.3346   2.3331   2.3320   2.3311   2.4036

 MOLE FRACTIONS

 *H2              1.00000  1.00000  1.00000  1.00000  1.00000  1.00000  1.00000  1.00000

  * THERMODYNAMIC PROPERTIES FITTED TO 20000.K

 NOTE. WEIGHT FRACTION OF FUEL IN TOTAL FUELS AND OF OXIDANT IN TOTAL OXIDANTS









               THERMODYNAMIC EQUILIBRIUM PROPERTIES AT ASSIGNED

                           TEMPERATURE AND PRESSURE

 CASE =                

             REACTANT                    WT FRACTION      ENERGY      TEMP
                                          (SEE NOTE)     KJ/KG-MOL      K  
             H2                           1.0000000         0.000      0.000

 O/F=    0.00000  %FUEL=100.000000  R,EQ.RATIO= 0.000000  PHI,EQ.RATIO= 0.000000

 THERMODYNAMIC PROPERTIES

 P, BAR           0.28000  0.28000  0.28000  0.28000  0.28000  0.28000  0.28000  0.28000
 T, K              205.00   210.00   215.00   220.00   225.00   230.00   235.00   240.00
 RHO, KG/CU M    3.3116-2 3.2327-2 3.1575-2 3.0858-2 3.0172-2 2.9516-2 2.8888-2 2.8286-2
 H, KJ/KG        -1308.50 -1240.00 -1171.25 -1102.24 -1033.00  -963.53  -893.85  -823.97
 U, KJ/KG        -2154.02 -2106.15 -2058.01 -2009.63 -1961.01 -1912.16 -1863.11 -1813.85
 G, KJ/KG        -14596.9 -14921.9 -15248.4 -15576.6 -15906.3 -16237.6 -16570.4 -16904.7
 S, KJ/(KG)(K)    64.8217  65.1517  65.4753  65.7926  66.1038  66.4091  66.7088  67.0031

 M, (1/n)           2.016    2.016    2.016    2.016    2.016    2.016    2.016    2.016
 (dLV/dLP)t      -0.99999 -0.99999 -0.99999 -0.99999 -0.99999 -0.99999 -0.99999 -0.99999
 (dLV/dLT)p        1.0000   1.0000   1.0000   1.0000   1.0000   1.0000   1.0000   1.0000
 Cp, KJ/(KG)(K)   13.6711  13.7251  13.7765  13.8252  13.8715  13.9152  13.9565  13.9954
 GAMMAs            1.4320   1.4296   1.4273   1.4252   1.4232   1.4213   1.4195   1.4179
 SON VEL,M/SEC     1100.4   1112.8   1125.0   1137.2   1149.2   1161.1   1173.0   1184.7

 TRANSPORT PROPERTIES (GASES ONLY)
   CONDUCTIVITY IN UNITS OF MILLIWATTS/(CM)(K)

 VISC,MILLIPOISE  0.00000  0.00000  0.00000  0.00000  0.00000  0.00000  0.00000  0.00000

  WITH EQUILIBRIUM REACTIONS

 Cp, KJ/(KG)(K)   13.6711  13.7251  13.7765  13.8252  13.8715  13.9152  13.9565  13.9954
 CONDUCTIVITY      0.0000   0.0000   0.0000   0.0000   0.0000   0.0000   0.0000   0.0000
 PRANDTL NUMBER    2.3905   2.3795   2.3702   2.3623   2.3558   2.3503   2.3458   2.3421

  WITH FROZEN REACTIONS

 Cp, KJ/(KG)(K)   13.6711  13.7251  13.7765  13.8252  13.8715  13.9152  13.9565  13.9954
 CONDUCTIVITY      0.0000   0.0000   0.0000   0.0000   0.0000   0.0000   0.0000   0.0000
 PRANDTL NUMBER    2.3905   2.3795   2.3702   2.3623   2.3558   2.3503   2.3458   2.3421

 MOLE FRACTIONS

 *H2              1.00000  1.00000  1.00000  1.00000  1.00000  1.00000  1.00000  1.00000

  * THERMODYNAMIC PROPERTIES FITTED TO 20000.K

 NOTE. WEIGHT FRACTION OF FUEL IN TOTAL FUELS AND OF OXIDANT IN TOTAL OXIDANTS









               THERMODYNAMIC EQUILIBRIUM PROPERTIES AT ASSIGNED

                           TEMPERATURE AND PRESSURE

 CASE =                

             REACTANT                    WT FRACTION      ENERGY      TEMP
                                          (SEE NOTE)     KJ/KG-MOL      K  
             H2                           1.0000000         0.000      0.000

 O/F=    0.00000  %FUEL=100.000000  R,EQ.RATIO= 0.000000  PHI,EQ.RATIO= 0.000000

 THERMODYNAMIC PROPERTIES

 P, BAR           0.28000  0.28000  0.28000  0.28000  0.28000  0.28000  0.31000  0.31000
 T, K              245.00   250.00   255.00   260.00   265.00   270.00   200.00   205.00
 RHO, KG/CU M    2.7709-2 2.7155-2 2.6622-2 2.6110-2 2.5618-2 2.5143-2 3.7580-2 3.6664-2
 H, KJ/KG         -753.90  -683.66  -613.24  -542.67  -471.95  -401.09 -1376.71 -1308.50
 U, KJ/KG        -1764.40 -1714.78 -1664.98 -1615.03 -1564.94 -1514.70 -2201.61 -2154.02
 G, KJ/KG        -17240.5 -17577.6 -17916.2 -18256.2 -18597.5 -18940.1 -14189.7 -14510.9
 S, KJ/(KG)(K)    67.2920  67.5759  67.8548  68.1288  68.3982  68.6631  64.0650  64.4019

 M, (1/n)           2.016    2.016    2.016    2.016    2.016    2.016    2.016    2.016
 (dLV/dLP)t      -0.99999 -0.99999 -0.99999 -0.99999 -0.99999 -0.99999 -1.00000 -0.99999
 (dLV/dLT)p        1.0000   1.0000   1.0000   1.0000   1.0000   1.0000   1.0000   1.0000
 Cp, KJ/(KG)(K)   14.0321  14.0666  14.0990  14.1293  14.1578  14.1845  13.6144  13.6711
 GAMMAs            1.4163   1.4149   1.4135   1.4123   1.4111   1.4100   1.4346   1.4320
 SON VEL,M/SEC     1196.3   1207.8   1219.3   1230.6   1241.9   1253.1   1087.9   1100.4

 TRANSPORT PROPERTIES (GASES ONLY)
   CONDUCTIVITY IN UNITS OF MILLIWATTS/(CM)(K)

 VISC,MILLIPOISE  0.00000  0.00000  0.00000  0.00000  0.00000  0.00000  0.00000  0.00000

  WITH EQUILIBRIUM REACTIONS

 Cp, KJ/(KG)(K)   14.0321  14.0666  14.0990  14.1293  14.1578  14.1845  13.6144  13.6711
 CONDUCTIVITY      0.0000   0.0000   0.0000   0.0000   0.0000   0.0000   0.0000   0.0000
 PRANDTL NUMBER    2.3390   2.3366   2.3346   2.3331   2.3320   2.3311   2.4036   2.3905

  WITH FROZEN REACTIONS

 Cp, KJ/(KG)(K)   14.0321  14.0666  14.0990  14.1293  14.1578  14.1845  13.6144  13.6711
 CONDUCTIVITY      0.0000   0.0000   0.0000   0.0000   0.0000   0.0000   0.0000   0.0000
 PRANDTL NUMBER    2.3390   2.3366   2.3346   2.3331   2.3320   2.3311   2.4036   2.3905

 MOLE FRACTIONS

 *H2              1.00000  1.00000  1.00000  1.00000  1.00000  1.00000  1.00000  1.00000

  * THERMODYNAMIC PROPERTIES FITTED TO 20000.K

 NOTE. WEIGHT FRACTION OF FUEL IN TOTAL FUELS AND OF OXIDANT IN TOTAL OXIDANTS









               THERMODYNAMIC EQUILIBRIUM PROPERTIES AT ASSIGNED

                           TEMPERATURE AND PRESSURE

 CASE =                

             REACTANT                    WT FRACTION      ENERGY      TEMP
                                          (SEE NOTE)     KJ/KG-MOL      K  
             H2                           1.0000000         0.000      0.000

 O/F=    0.00000  %FUEL=100.000000  R,EQ.RATIO= 0.000000  PHI,EQ.RATIO= 0.000000

 THERMODYNAMIC PROPERTIES

 P, BAR           0.31000  0.31000  0.31000  0.31000  0.31000  0.31000  0.31000  0.31000
 T, K              210.00   215.00   220.00   225.00   230.00   235.00   240.00   245.00
 RHO, KG/CU M    3.5791-2 3.4959-2 3.4164-2 3.3405-2 3.2679-2 3.1983-2 3.1317-2 3.0678-2
 H, KJ/KG        -1240.00 -1171.25 -1102.24 -1033.00  -963.53  -893.85  -823.97  -753.90
 U, KJ/KG        -2106.15 -2058.01 -2009.63 -1961.01 -1912.16 -1863.11 -1813.85 -1764.40
 G, KJ/KG        -14833.7 -15158.2 -15484.3 -15811.9 -16141.1 -16471.8 -16804.0 -17137.6
 S, KJ/(KG)(K)    64.7319  65.0555  65.3728  65.6840  65.9893  66.2890  66.5833  66.8722

 M, (1/n)           2.016    2.016    2.016    2.016    2.016    2.016    2.016    2.016
 (dLV/dLP)t      -0.99999 -0.99999 -0.99999 -0.99999 -0.99999 -0.99999 -0.99999 -0.99999
 (dLV/dLT)p        1.0000   1.0000   1.0000   1.0000   1.0000   1.0000   1.0000   1.0000
 Cp, KJ/(KG)(K)   13.7251  13.7765  13.8252  13.8715  13.9152  13.9565  13.9954  14.0321
 GAMMAs            1.4296   1.4273   1.4252   1.4232   1.4213   1.4195   1.4179   1.4163
 SON VEL,M/SEC     1112.8   1125.0   1137.2   1149.2   1161.1   1173.0   1184.7   1196.3

 TRANSPORT PROPERTIES (GASES ONLY)
   CONDUCTIVITY IN UNITS OF MILLIWATTS/(CM)(K)

 VISC,MILLIPOISE  0.00000  0.00000  0.00000  0.00000  0.00000  0.00000  0.00000  0.00000

  WITH EQUILIBRIUM REACTIONS

 Cp, KJ/(KG)(K)   13.7251  13.7765  13.8252  13.8715  13.9152  13.9565  13.9954  14.0321
 CONDUCTIVITY      0.0000   0.0000   0.0000   0.0000   0.0000   0.0000   0.0000   0.0000
 PRANDTL NUMBER    2.3795   2.3702   2.3623   2.3558   2.3503   2.3458   2.3421   2.3390

  WITH FROZEN REACTIONS

 Cp, KJ/(KG)(K)   13.7251  13.7765  13.8252  13.8715  13.9152  13.9565  13.9954  14.0321
 CONDUCTIVITY      0.0000   0.0000   0.0000   0.0000   0.0000   0.0000   0.0000   0.0000
 PRANDTL NUMBER    2.3795   2.3702   2.3623   2.3558   2.3503   2.3458   2.3421   2.3390

 MOLE FRACTIONS

 *H2              1.00000  1.00000  1.00000  1.00000  1.00000  1.00000  1.00000  1.00000

  * THERMODYNAMIC PROPERTIES FITTED TO 20000.K

 NOTE. WEIGHT FRACTION OF FUEL IN TOTAL FUELS AND OF OXIDANT IN TOTAL OXIDANTS









               THERMODYNAMIC EQUILIBRIUM PROPERTIES AT ASSIGNED

                           TEMPERATURE AND PRESSURE

 CASE =                

             REACTANT                    WT FRACTION      ENERGY      TEMP
                                          (SEE NOTE)     KJ/KG-MOL      K  
             H2                           1.0000000         0.000      0.000

 O/F=    0.00000  %FUEL=100.000000  R,EQ.RATIO= 0.000000  PHI,EQ.RATIO= 0.000000

 THERMODYNAMIC PROPERTIES

 P, BAR           0.31000  0.31000  0.31000  0.31000  0.31000  0.35000  0.35000  0.35000
 T, K              250.00   255.00   260.00   265.00   270.00   200.00   205.00   210.00
 RHO, KG/CU M    3.0064-2 2.9475-2 2.8908-2 2.8363-2 2.7837-2 4.2429-2 4.1395-2 4.0409-2
 H, KJ/KG         -683.66  -613.24  -542.67  -471.95  -401.09 -1376.71 -1308.50 -1240.00
 U, KJ/KG        -1714.78 -1664.98 -1615.03 -1564.94 -1514.70 -2201.61 -2154.02 -2106.15
 G, KJ/KG        -17472.7 -17809.2 -18147.0 -18486.2 -18826.8 -14089.6 -14408.3 -14728.6
 S, KJ/(KG)(K)    67.1561  67.4350  67.7090  67.9784  68.2433  63.5645  63.9013  64.2314

 M, (1/n)           2.016    2.016    2.016    2.016    2.016    2.016    2.016    2.016
 (dLV/dLP)t      -0.99999 -0.99999 -0.99999 -0.99999 -0.99999 -1.00000 -0.99999 -0.99999
 (dLV/dLT)p        1.0000   1.0000   1.0000   1.0000   1.0000   1.0000   1.0000   1.0000
 Cp, KJ/(KG)(K)   14.0666  14.0990  14.1293  14.1578  14.1845  13.6144  13.6711  13.7251
 GAMMAs            1.4149   1.4135   1.4123   1.4111   1.4100   1.4346   1.4320   1.4296
 SON VEL,M/SEC     1207.8   1219.3   1230.6   1241.9   1253.1   1087.9   1100.4   1112.8

 TRANSPORT PROPERTIES (GASES ONLY)
   CONDUCTIVITY IN UNITS OF MILLIWATTS/(CM)(K)

 VISC,MILLIPOISE  0.00000  0.00000  0.00000  0.00000  0.00000  0.00000  0.00000  0.00000

  WITH EQUILIBRIUM REACTIONS

 Cp, KJ/(KG)(K)   14.0666  14.0990  14.1293  14.1578  14.1845  13.6144  13.6711  13.7251
 CONDUCTIVITY      0.0000   0.0000   0.0000   0.0000   0.0000   0.0000   0.0000   0.0000
 PRANDTL NUMBER    2.3366   2.3346   2.3331   2.3320   2.3311   2.4036   2.3905   2.3795

  WITH FROZEN REACTIONS

 Cp, KJ/(KG)(K)   14.0666  14.0990  14.1293  14.1578  14.1845  13.6144  13.6711  13.7251
 CONDUCTIVITY      0.0000   0.0000   0.0000   0.0000   0.0000   0.0000   0.0000   0.0000
 PRANDTL NUMBER    2.3366   2.3346   2.3331   2.3320   2.3311   2.4036   2.3905   2.3795

 MOLE FRACTIONS

 *H2              1.00000  1.00000  1.00000  1.00000  1.00000  1.00000  1.00000  1.00000

  * THERMODYNAMIC PROPERTIES FITTED TO 20000.K

 NOTE. WEIGHT FRACTION OF FUEL IN TOTAL FUELS AND OF OXIDANT IN TOTAL OXIDANTS









               THERMODYNAMIC EQUILIBRIUM PROPERTIES AT ASSIGNED

                           TEMPERATURE AND PRESSURE

 CASE =                

             REACTANT                    WT FRACTION      ENERGY      TEMP
                                          (SEE NOTE)     KJ/KG-MOL      K  
             H2                           1.0000000         0.000      0.000

 O/F=    0.00000  %FUEL=100.000000  R,EQ.RATIO= 0.000000  PHI,EQ.RATIO= 0.000000

 THERMODYNAMIC PROPERTIES

 P, BAR           0.35000  0.35000  0.35000  0.35000  0.35000  0.35000  0.35000  0.35000
 T, K              215.00   220.00   225.00   230.00   235.00   240.00   245.00   250.00
 RHO, KG/CU M    3.9469-2 3.8572-2 3.7715-2 3.6895-2 3.6110-2 3.5358-2 3.4636-2 3.3944-2
 H, KJ/KG        -1171.25 -1102.24 -1033.00  -963.53  -893.85  -823.97  -753.90  -683.66
 U, KJ/KG        -2058.01 -2009.63 -1961.01 -1912.16 -1863.11 -1813.85 -1764.40 -1714.78
 G, KJ/KG        -15050.6 -15374.1 -15699.3 -16026.0 -16354.1 -16683.8 -17015.0 -17347.5
 S, KJ/(KG)(K)    64.5549  64.8722  65.1834  65.4888  65.7885  66.0827  66.3717  66.6555

 M, (1/n)           2.016    2.016    2.016    2.016    2.016    2.016    2.016    2.016
 (dLV/dLP)t      -0.99999 -0.99999 -0.99999 -0.99999 -0.99999 -0.99999 -0.99999 -0.99999
 (dLV/dLT)p        1.0000   1.0000   1.0000   1.0000   1.0000   1.0000   1.0000   1.0000
 Cp, KJ/(KG)(K)   13.7765  13.8252  13.8715  13.9152  13.9565  13.9954  14.0321  14.0666
 GAMMAs            1.4273   1.4252   1.4232   1.4213   1.4195   1.4179   1.4163   1.4149
 SON VEL,M/SEC     1125.0   1137.2   1149.2   1161.1   1173.0   1184.7   1196.3   1207.8

 TRANSPORT PROPERTIES (GASES ONLY)
   CONDUCTIVITY IN UNITS OF MILLIWATTS/(CM)(K)

 VISC,MILLIPOISE  0.00000  0.00000  0.00000  0.00000  0.00000  0.00000  0.00000  0.00000

  WITH EQUILIBRIUM REACTIONS

 Cp, KJ/(KG)(K)   13.7765  13.8252  13.8715  13.9152  13.9565  13.9954  14.0321  14.0666
 CONDUCTIVITY      0.0000   0.0000   0.0000   0.0000   0.0000   0.0000   0.0000   0.0000
 PRANDTL NUMBER    2.3702   2.3623   2.3558   2.3503   2.3458   2.3421   2.3390   2.3366

  WITH FROZEN REACTIONS

 Cp, KJ/(KG)(K)   13.7765  13.8252  13.8715  13.9152  13.9565  13.9954  14.0321  14.0666
 CONDUCTIVITY      0.0000   0.0000   0.0000   0.0000   0.0000   0.0000   0.0000   0.0000
 PRANDTL NUMBER    2.3702   2.3623   2.3558   2.3503   2.3458   2.3421   2.3390   2.3366

 MOLE FRACTIONS

 *H2              1.00000  1.00000  1.00000  1.00000  1.00000  1.00000  1.00000  1.00000

  * THERMODYNAMIC PROPERTIES FITTED TO 20000.K

 NOTE. WEIGHT FRACTION OF FUEL IN TOTAL FUELS AND OF OXIDANT IN TOTAL OXIDANTS









               THERMODYNAMIC EQUILIBRIUM PROPERTIES AT ASSIGNED

                           TEMPERATURE AND PRESSURE

 CASE =                

             REACTANT                    WT FRACTION      ENERGY      TEMP
                                          (SEE NOTE)     KJ/KG-MOL      K  
             H2                           1.0000000         0.000      0.000

 O/F=    0.00000  %FUEL=100.000000  R,EQ.RATIO= 0.000000  PHI,EQ.RATIO= 0.000000

 THERMODYNAMIC PROPERTIES

 P, BAR           0.35000  0.35000  0.35000  0.35000  0.39000  0.39000  0.39000  0.39000
 T, K              255.00   260.00   265.00   270.00   200.00   205.00   210.00   215.00
 RHO, KG/CU M    3.3278-2 3.2638-2 3.2022-2 3.1429-2 4.7279-2 4.6125-2 4.5027-2 4.3980-2
 H, KJ/KG         -613.24  -542.67  -471.95  -401.09 -1376.71 -1308.50 -1240.00 -1171.25
 U, KJ/KG        -1664.98 -1615.03 -1564.94 -1514.70 -2201.61 -2154.02 -2106.15 -2058.01
 G, KJ/KG        -17681.5 -18016.9 -18353.6 -18691.6 -14000.3 -14316.8 -14634.9 -14954.6
 S, KJ/(KG)(K)    66.9344  67.2085  67.4779  67.7428  63.1182  63.4550  63.7850  64.1086

 M, (1/n)           2.016    2.016    2.016    2.016    2.016    2.016    2.016    2.016
 (dLV/dLP)t      -0.99999 -0.99999 -0.99999 -0.99999 -1.00000 -0.99999 -0.99999 -0.99999
 (dLV/dLT)p        1.0000   1.0000   1.0000   1.0000   1.0000   1.0000   1.0000   1.0000
 Cp, KJ/(KG)(K)   14.0990  14.1293  14.1578  14.1845  13.6144  13.6711  13.7251  13.7765
 GAMMAs            1.4135   1.4123   1.4111   1.4100   1.4346   1.4320   1.4296   1.4273
 SON VEL,M/SEC     1219.3   1230.6   1241.9   1253.1   1087.9   1100.4   1112.8   1125.0

 TRANSPORT PROPERTIES (GASES ONLY)
   CONDUCTIVITY IN UNITS OF MILLIWATTS/(CM)(K)

 VISC,MILLIPOISE  0.00000  0.00000  0.00000  0.00000  0.00000  0.00000  0.00000  0.00000

  WITH EQUILIBRIUM REACTIONS

 Cp, KJ/(KG)(K)   14.0990  14.1293  14.1578  14.1845  13.6144  13.6711  13.7251  13.7765
 CONDUCTIVITY      0.0000   0.0000   0.0000   0.0000   0.0000   0.0000   0.0000   0.0000
 PRANDTL NUMBER    2.3346   2.3331   2.3320   2.3311   2.4036   2.3905   2.3795   2.3702

  WITH FROZEN REACTIONS

 Cp, KJ/(KG)(K)   14.0990  14.1293  14.1578  14.1845  13.6144  13.6711  13.7251  13.7765
 CONDUCTIVITY      0.0000   0.0000   0.0000   0.0000   0.0000   0.0000   0.0000   0.0000
 PRANDTL NUMBER    2.3346   2.3331   2.3320   2.3311   2.4036   2.3905   2.3795   2.3702

 MOLE FRACTIONS

 *H2              1.00000  1.00000  1.00000  1.00000  1.00000  1.00000  1.00000  1.00000

  * THERMODYNAMIC PROPERTIES FITTED TO 20000.K

 NOTE. WEIGHT FRACTION OF FUEL IN TOTAL FUELS AND OF OXIDANT IN TOTAL OXIDANTS









               THERMODYNAMIC EQUILIBRIUM PROPERTIES AT ASSIGNED

                           TEMPERATURE AND PRESSURE

 CASE =                

             REACTANT                    WT FRACTION      ENERGY      TEMP
                                          (SEE NOTE)     KJ/KG-MOL      K  
             H2                           1.0000000         0.000      0.000

 O/F=    0.00000  %FUEL=100.000000  R,EQ.RATIO= 0.000000  PHI,EQ.RATIO= 0.000000

 THERMODYNAMIC PROPERTIES

 P, BAR           0.39000  0.39000  0.39000  0.39000  0.39000  0.39000  0.39000  0.39000
 T, K              220.00   225.00   230.00   235.00   240.00   245.00   250.00   255.00
 RHO, KG/CU M    4.2981-2 4.2025-2 4.1112-2 4.0237-2 3.9399-2 3.8595-2 3.7823-2 3.7081-2
 H, KJ/KG        -1102.24 -1033.00  -963.53  -893.85  -823.97  -753.90  -683.66  -613.24
 U, KJ/KG        -2009.63 -1961.01 -1912.16 -1863.11 -1813.85 -1764.40 -1714.78 -1664.98
 G, KJ/KG        -15275.9 -15598.8 -15923.3 -16249.3 -16576.7 -16905.6 -17236.0 -17567.7
 S, KJ/(KG)(K)    64.4259  64.7371  65.0424  65.3422  65.6364  65.9254  66.2092  66.4881

 M, (1/n)           2.016    2.016    2.016    2.016    2.016    2.016    2.016    2.016
 (dLV/dLP)t      -0.99999 -0.99999 -0.99999 -0.99999 -0.99999 -0.99999 -0.99999 -0.99999
 (dLV/dLT)p        1.0000   1.0000   1.0000   1.0000   1.0000   1.0000   1.0000   1.0000
 Cp, KJ/(KG)(K)   13.8252  13.8715  13.9152  13.9565  13.9954  14.0321  14.0666  14.0990
 GAMMAs            1.4252   1.4232   1.4213   1.4195   1.4179   1.4163   1.4149   1.4135
 SON VEL,M/SEC     1137.2   1149.2   1161.1   1173.0   1184.7   1196.3   1207.8   1219.3

 TRANSPORT PROPERTIES (GASES ONLY)
   CONDUCTIVITY IN UNITS OF MILLIWATTS/(CM)(K)

 VISC,MILLIPOISE  0.00000  0.00000  0.00000  0.00000  0.00000  0.00000  0.00000  0.00000

  WITH EQUILIBRIUM REACTIONS

 Cp, KJ/(KG)(K)   13.8252  13.8715  13.9152  13.9565  13.9954  14.0321  14.0666  14.0990
 CONDUCTIVITY      0.0000   0.0000   0.0000   0.0000   0.0000   0.0000   0.0000   0.0000
 PRANDTL NUMBER    2.3623   2.3558   2.3503   2.3458   2.3421   2.3390   2.3366   2.3346

  WITH FROZEN REACTIONS

 Cp, KJ/(KG)(K)   13.8252  13.8715  13.9152  13.9565  13.9954  14.0321  14.0666  14.0990
 CONDUCTIVITY      0.0000   0.0000   0.0000   0.0000   0.0000   0.0000   0.0000   0.0000
 PRANDTL NUMBER    2.3623   2.3558   2.3503   2.3458   2.3421   2.3390   2.3366   2.3346

 MOLE FRACTIONS

 *H2              1.00000  1.00000  1.00000  1.00000  1.00000  1.00000  1.00000  1.00000

  * THERMODYNAMIC PROPERTIES FITTED TO 20000.K

 NOTE. WEIGHT FRACTION OF FUEL IN TOTAL FUELS AND OF OXIDANT IN TOTAL OXIDANTS









               THERMODYNAMIC EQUILIBRIUM PROPERTIES AT ASSIGNED

                           TEMPERATURE AND PRESSURE

 CASE =                

             REACTANT                    WT FRACTION      ENERGY      TEMP
                                          (SEE NOTE)     KJ/KG-MOL      K  
             H2                           1.0000000         0.000      0.000

 O/F=    0.00000  %FUEL=100.000000  R,EQ.RATIO= 0.000000  PHI,EQ.RATIO= 0.000000

 THERMODYNAMIC PROPERTIES

 P, BAR           0.39000  0.39000  0.39000  0.44000  0.44000  0.44000  0.44000  0.44000
 T, K              260.00   265.00   270.00   200.00   205.00   210.00   215.00   220.00
 RHO, KG/CU M    3.6368-2 3.5682-2 3.5021-2 5.3340-2 5.2039-2 5.0800-2 4.9619-2 4.8491-2
 H, KJ/KG         -542.67  -471.95  -401.09 -1376.71 -1308.50 -1240.00 -1171.25 -1102.24
 U, KJ/KG        -1615.03 -1564.94 -1514.70 -2201.61 -2154.02 -2106.15 -2058.01 -2009.63
 G, KJ/KG        -17900.8 -18235.3 -18571.1 -13900.8 -14214.8 -14530.4 -14847.6 -15166.5
 S, KJ/(KG)(K)    66.7621  67.0316  67.2964  62.6206  62.9574  63.2875  63.6111  63.9283

 M, (1/n)           2.016    2.016    2.016    2.016    2.016    2.016    2.016    2.016
 (dLV/dLP)t      -0.99999 -0.99999 -0.99999 -1.00000 -0.99999 -0.99999 -0.99999 -0.99999
 (dLV/dLT)p        1.0000   1.0000   1.0000   1.0000   1.0000   1.0000   1.0000   1.0000
 Cp, KJ/(KG)(K)   14.1293  14.1578  14.1845  13.6144  13.6711  13.7251  13.7765  13.8252
 GAMMAs            1.4123   1.4111   1.4100   1.4346   1.4320   1.4296   1.4273   1.4252
 SON VEL,M/SEC     1230.6   1241.9   1253.1   1087.9   1100.4   1112.8   1125.0   1137.2

 TRANSPORT PROPERTIES (GASES ONLY)
   CONDUCTIVITY IN UNITS OF MILLIWATTS/(CM)(K)

 VISC,MILLIPOISE  0.00000  0.00000  0.00000  0.00000  0.00000  0.00000  0.00000  0.00000

  WITH EQUILIBRIUM REACTIONS

 Cp, KJ/(KG)(K)   14.1293  14.1578  14.1845  13.6144  13.6711  13.7251  13.7765  13.8252
 CONDUCTIVITY      0.0000   0.0000   0.0000   0.0000   0.0000   0.0000   0.0000   0.0000
 PRANDTL NUMBER    2.3331   2.3320   2.3311   2.4036   2.3905   2.3795   2.3702   2.3623

  WITH FROZEN REACTIONS

 Cp, KJ/(KG)(K)   14.1293  14.1578  14.1845  13.6144  13.6711  13.7251  13.7765  13.8252
 CONDUCTIVITY      0.0000   0.0000   0.0000   0.0000   0.0000   0.0000   0.0000   0.0000
 PRANDTL NUMBER    2.3331   2.3320   2.3311   2.4036   2.3905   2.3795   2.3702   2.3623

 MOLE FRACTIONS

 *H2              1.00000  1.00000  1.00000  1.00000  1.00000  1.00000  1.00000  1.00000

  * THERMODYNAMIC PROPERTIES FITTED TO 20000.K

 NOTE. WEIGHT FRACTION OF FUEL IN TOTAL FUELS AND OF OXIDANT IN TOTAL OXIDANTS









               THERMODYNAMIC EQUILIBRIUM PROPERTIES AT ASSIGNED

                           TEMPERATURE AND PRESSURE

 CASE =                

             REACTANT                    WT FRACTION      ENERGY      TEMP
                                          (SEE NOTE)     KJ/KG-MOL      K  
             H2                           1.0000000         0.000      0.000

 O/F=    0.00000  %FUEL=100.000000  R,EQ.RATIO= 0.000000  PHI,EQ.RATIO= 0.000000

 THERMODYNAMIC PROPERTIES

 P, BAR           0.44000  0.44000  0.44000  0.44000  0.44000  0.44000  0.44000  0.44000
 T, K              225.00   230.00   235.00   240.00   245.00   250.00   255.00   260.00
 RHO, KG/CU M    4.7413-2 4.6383-2 4.5396-2 4.4450-2 4.3543-2 4.2672-2 4.1835-2 4.1031-2
 H, KJ/KG        -1033.00  -963.53  -893.85  -823.97  -753.90  -683.66  -613.24  -542.67
 U, KJ/KG        -1961.01 -1912.16 -1863.11 -1813.85 -1764.40 -1714.78 -1664.98 -1615.03
 G, KJ/KG        -15486.9 -15808.9 -16132.3 -16457.3 -16783.7 -17111.6 -17440.8 -17771.5
 S, KJ/(KG)(K)    64.2396  64.5449  64.8446  65.1389  65.4278  65.7117  65.9905  66.2646

 M, (1/n)           2.016    2.016    2.016    2.016    2.016    2.016    2.016    2.016
 (dLV/dLP)t      -0.99999 -0.99999 -0.99999 -0.99999 -0.99999 -0.99999 -0.99999 -0.99999
 (dLV/dLT)p        1.0000   1.0000   1.0000   1.0000   1.0000   1.0000   1.0000   1.0000
 Cp, KJ/(KG)(K)   13.8715  13.9152  13.9565  13.9954  14.0321  14.0666  14.0990  14.1293
 GAMMAs            1.4232   1.4213   1.4195   1.4179   1.4163   1.4149   1.4135   1.4123
 SON VEL,M/SEC     1149.2   1161.1   1173.0   1184.7   1196.3   1207.8   1219.3   1230.6

 TRANSPORT PROPERTIES (GASES ONLY)
   CONDUCTIVITY IN UNITS OF MILLIWATTS/(CM)(K)

 VISC,MILLIPOISE  0.00000  0.00000  0.00000  0.00000  0.00000  0.00000  0.00000  0.00000

  WITH EQUILIBRIUM REACTIONS

 Cp, KJ/(KG)(K)   13.8715  13.9152  13.9565  13.9954  14.0321  14.0666  14.0990  14.1293
 CONDUCTIVITY      0.0000   0.0000   0.0000   0.0000   0.0000   0.0000   0.0000   0.0000
 PRANDTL NUMBER    2.3558   2.3503   2.3458   2.3421   2.3390   2.3366   2.3346   2.3331

  WITH FROZEN REACTIONS

 Cp, KJ/(KG)(K)   13.8715  13.9152  13.9565  13.9954  14.0321  14.0666  14.0990  14.1293
 CONDUCTIVITY      0.0000   0.0000   0.0000   0.0000   0.0000   0.0000   0.0000   0.0000
 PRANDTL NUMBER    2.3558   2.3503   2.3458   2.3421   2.3390   2.3366   2.3346   2.3331

 MOLE FRACTIONS

 *H2              1.00000  1.00000  1.00000  1.00000  1.00000  1.00000  1.00000  1.00000

  * THERMODYNAMIC PROPERTIES FITTED TO 20000.K

 NOTE. WEIGHT FRACTION OF FUEL IN TOTAL FUELS AND OF OXIDANT IN TOTAL OXIDANTS









               THERMODYNAMIC EQUILIBRIUM PROPERTIES AT ASSIGNED

                           TEMPERATURE AND PRESSURE

 CASE =                

             REACTANT                    WT FRACTION      ENERGY      TEMP
                                          (SEE NOTE)     KJ/KG-MOL      K  
             H2                           1.0000000         0.000      0.000

 O/F=    0.00000  %FUEL=100.000000  R,EQ.RATIO= 0.000000  PHI,EQ.RATIO= 0.000000

 THERMODYNAMIC PROPERTIES

 P, BAR           0.44000  0.44000  0.49000  0.49000  0.49000  0.49000  0.49000  0.49000
 T, K              265.00   270.00   200.00   205.00   210.00   215.00   220.00   225.00
 RHO, KG/CU M    4.0257-2 3.9511-2 5.9401-2 5.7953-2 5.6573-2 5.5257-2 5.4001-2 5.2801-2
 H, KJ/KG         -471.95  -401.09 -1376.71 -1308.50 -1240.00 -1171.25 -1102.24 -1033.00
 U, KJ/KG        -1564.94 -1514.70 -2201.61 -2154.02 -2106.15 -2058.01 -2009.63 -1961.01
 G, KJ/KG        -18103.5 -18436.8 -13812.1 -14123.8 -14437.2 -14752.2 -15068.8 -15387.0
 S, KJ/(KG)(K)    66.5340  66.7989  62.1767  62.5135  62.8436  63.1671  63.4844  63.7956

 M, (1/n)           2.016    2.016    2.016    2.016    2.016    2.016    2.016    2.016
 (dLV/dLP)t      -0.99999 -0.99999 -1.00000 -0.99999 -0.99999 -0.99999 -0.99999 -0.99999
 (dLV/dLT)p        1.0000   1.0000   1.0000   1.0000   1.0000   1.0000   1.0000   1.0000
 Cp, KJ/(KG)(K)   14.1578  14.1845  13.6144  13.6711  13.7251  13.7765  13.8252  13.8715
 GAMMAs            1.4111   1.4100   1.4346   1.4320   1.4296   1.4273   1.4252   1.4232
 SON VEL,M/SEC     1241.9   1253.1   1087.9   1100.4   1112.8   1125.0   1137.2   1149.2

 TRANSPORT PROPERTIES (GASES ONLY)
   CONDUCTIVITY IN UNITS OF MILLIWATTS/(CM)(K)

 VISC,MILLIPOISE  0.00000  0.00000  0.00000  0.00000  0.00000  0.00000  0.00000  0.00000

  WITH EQUILIBRIUM REACTIONS

 Cp, KJ/(KG)(K)   14.1578  14.1845  13.6144  13.6711  13.7251  13.7765  13.8252  13.8715
 CONDUCTIVITY      0.0000   0.0000   0.0000   0.0000   0.0000   0.0000   0.0000   0.0000
 PRANDTL NUMBER    2.3320   2.3311   2.4036   2.3905   2.3795   2.3702   2.3623   2.3558

  WITH FROZEN REACTIONS

 Cp, KJ/(KG)(K)   14.1578  14.1845  13.6144  13.6711  13.7251  13.7765  13.8252  13.8715
 CONDUCTIVITY      0.0000   0.0000   0.0000   0.0000   0.0000   0.0000   0.0000   0.0000
 PRANDTL NUMBER    2.3320   2.3311   2.4036   2.3905   2.3795   2.3702   2.3623   2.3558

 MOLE FRACTIONS

 *H2              1.00000  1.00000  1.00000  1.00000  1.00000  1.00000  1.00000  1.00000

  * THERMODYNAMIC PROPERTIES FITTED TO 20000.K

 NOTE. WEIGHT FRACTION OF FUEL IN TOTAL FUELS AND OF OXIDANT IN TOTAL OXIDANTS









               THERMODYNAMIC EQUILIBRIUM PROPERTIES AT ASSIGNED

                           TEMPERATURE AND PRESSURE

 CASE =                

             REACTANT                    WT FRACTION      ENERGY      TEMP
                                          (SEE NOTE)     KJ/KG-MOL      K  
             H2                           1.0000000         0.000      0.000

 O/F=    0.00000  %FUEL=100.000000  R,EQ.RATIO= 0.000000  PHI,EQ.RATIO= 0.000000

 THERMODYNAMIC PROPERTIES

 P, BAR           0.49000  0.49000  0.49000  0.49000  0.49000  0.49000  0.49000  0.49000
 T, K              230.00   235.00   240.00   245.00   250.00   255.00   260.00   265.00
 RHO, KG/CU M    5.1653-2 5.0554-2 4.9501-2 4.8491-2 4.7521-2 4.6589-2 4.5693-2 4.4831-2
 H, KJ/KG         -963.53  -893.85  -823.97  -753.90  -683.66  -613.24  -542.67  -471.95
 U, KJ/KG        -1912.16 -1863.11 -1813.85 -1764.40 -1714.78 -1664.98 -1615.03 -1564.94
 G, KJ/KG        -15706.8 -16028.0 -16350.8 -16675.0 -17000.6 -17327.6 -17656.0 -17985.8
 S, KJ/(KG)(K)    64.1010  64.4007  64.6949  64.9839  65.2677  65.5466  65.8207  66.0901

 M, (1/n)           2.016    2.016    2.016    2.016    2.016    2.016    2.016    2.016
 (dLV/dLP)t      -0.99999 -0.99999 -0.99999 -0.99999 -0.99999 -0.99999 -0.99999 -0.99999
 (dLV/dLT)p        1.0000   1.0000   1.0000   1.0000   1.0000   1.0000   1.0000   1.0000
 Cp, KJ/(KG)(K)   13.9152  13.9565  13.9954  14.0321  14.0666  14.0990  14.1293  14.1578
 GAMMAs            1.4213   1.4195   1.4179   1.4163   1.4149   1.4135   1.4123   1.4111
 SON VEL,M/SEC     1161.1   1173.0   1184.7   1196.3   1207.8   1219.3   1230.6   1241.9

 TRANSPORT PROPERTIES (GASES ONLY)
   CONDUCTIVITY IN UNITS OF MILLIWATTS/(CM)(K)

 VISC,MILLIPOISE  0.00000  0.00000  0.00000  0.00000  0.00000  0.00000  0.00000  0.00000

  WITH EQUILIBRIUM REACTIONS

 Cp, KJ/(KG)(K)   13.9152  13.9565  13.9954  14.0321  14.0666  14.0990  14.1293  14.1578
 CONDUCTIVITY      0.0000   0.0000   0.0000   0.0000   0.0000   0.0000   0.0000   0.0000
 PRANDTL NUMBER    2.3503   2.3458   2.3421   2.3390   2.3366   2.3346   2.3331   2.3320

  WITH FROZEN REACTIONS

 Cp, KJ/(KG)(K)   13.9152  13.9565  13.9954  14.0321  14.0666  14.0990  14.1293  14.1578
 CONDUCTIVITY      0.0000   0.0000   0.0000   0.0000   0.0000   0.0000   0.0000   0.0000
 PRANDTL NUMBER    2.3503   2.3458   2.3421   2.3390   2.3366   2.3346   2.3331   2.3320

 MOLE FRACTIONS

 *H2              1.00000  1.00000  1.00000  1.00000  1.00000  1.00000  1.00000  1.00000

  * THERMODYNAMIC PROPERTIES FITTED TO 20000.K

 NOTE. WEIGHT FRACTION OF FUEL IN TOTAL FUELS AND OF OXIDANT IN TOTAL OXIDANTS









               THERMODYNAMIC EQUILIBRIUM PROPERTIES AT ASSIGNED

                           TEMPERATURE AND PRESSURE

 CASE =                

             REACTANT                    WT FRACTION      ENERGY      TEMP
                                          (SEE NOTE)     KJ/KG-MOL      K  
             H2                           1.0000000         0.000      0.000

 O/F=    0.00000  %FUEL=100.000000  R,EQ.RATIO= 0.000000  PHI,EQ.RATIO= 0.000000

 THERMODYNAMIC PROPERTIES

 P, BAR           0.49000
 T, K              270.00
 RHO, KG/CU M    4.4001-2
 H, KJ/KG         -401.09
 U, KJ/KG        -1514.70
 G, KJ/KG        -18316.9
 S, KJ/(KG)(K)    66.3550

 M, (1/n)           2.016
 (dLV/dLP)t      -0.99999
 (dLV/dLT)p        1.0000
 Cp, KJ/(KG)(K)   14.1845
 GAMMAs            1.4100
 SON VEL,M/SEC     1253.1

 TRANSPORT PROPERTIES (GASES ONLY)
   CONDUCTIVITY IN UNITS OF MILLIWATTS/(CM)(K)

 VISC,MILLIPOISE  0.00000

  WITH EQUILIBRIUM REACTIONS

 Cp, KJ/(KG)(K)   14.1845
 CONDUCTIVITY      0.0000
 PRANDTL NUMBER    2.3311

  WITH FROZEN REACTIONS

 Cp, KJ/(KG)(K)   14.1845
 CONDUCTIVITY      0.0000
 PRANDTL NUMBER    2.3311

 MOLE FRACTIONS

 *H2              1.00000

  * THERMODYNAMIC PROPERTIES FITTED TO 20000.K

 NOTE. WEIGHT FRACTION OF FUEL IN TOTAL FUELS AND OF OXIDANT IN TOTAL OXIDANTS



  
