
 *******************************************************************************

         NASA-GLENN CHEMICAL EQUILIBRIUM PROGRAM CEA2, MAY 21, 2004
                   BY  BONNIE MCBRIDE AND SANFORD GORDON
      REFS: NASA RP-1311, PART I, 1994 AND NASA RP-1311, PART II, 1996

 *******************************************************************************



  prob tp ions
  p,bar= 0.54,0.6,0.67,0.74,0.825,0.91,1.0,1.1,1.2,1.32,1.48,1.65,1.8,2.0,2.25
  t,k= 1800,1810,1820,1830,1840,1850,1860,1870,1880,1890,1900,1910,1920,1930,1940
  
  reac
  na H2                wt%=100.0000
  
  output short
  output siunits
  output transport
  
 end





               THERMODYNAMIC EQUILIBRIUM PROPERTIES AT ASSIGNED

                           TEMPERATURE AND PRESSURE

 CASE =                

             REACTANT                    WT FRACTION      ENERGY      TEMP
                                          (SEE NOTE)     KJ/KG-MOL      K  
             H2                           1.0000000         0.000      0.000

 O/F=    0.00000  %FUEL=100.000000  R,EQ.RATIO= 0.000000  PHI,EQ.RATIO= 0.000000

 THERMODYNAMIC PROPERTIES

 P, BAR           0.54000  0.54000  0.54000  0.54000  0.54000  0.54000  0.54000  0.54000
 T, K             1800.00  1810.00  1820.00  1830.00  1840.00  1850.00  1860.00  1870.00
 RHO, KG/CU M    7.2718-3 7.2315-3 7.1916-3 7.1521-3 7.1131-3 7.0744-3 7.0362-3 6.9983-3
 H, KJ/KG         22956.7  23127.9  23299.7  23472.0  23645.0  23818.6  23992.8  24167.7
 U, KJ/KG         15530.8  15660.6  15790.9  15921.8  16053.3  16185.4  16318.2  16451.5
 G, KJ/KG       -146727.7-147670.4-148614.5-149559.5-150505.5-151452.5-152400.3-153349.2
 S, KJ/(KG)(K)    94.2691  94.3637  94.4583  94.5528  94.6470  94.7411  94.8350  94.9288

 M, (1/n)           2.015    2.015    2.015    2.015    2.015    2.015    2.015    2.015
 (dLV/dLP)t      -1.00012 -1.00013 -1.00014 -1.00016 -1.00017 -1.00018 -1.00020 -1.00021
 (dLV/dLT)p        1.0037   1.0040   1.0043   1.0046   1.0050   1.0054   1.0058   1.0063
 Cp, KJ/(KG)(K)   17.0979  17.1517  17.2077  17.2658  17.3263  17.3891  17.4545  17.5226
 GAMMAs            1.3209   1.3198   1.3187   1.3176   1.3164   1.3152   1.3140   1.3127
 SON VEL,M/SEC     3131.9   3139.4   3146.7   3154.0   3161.3   3168.5   3175.6   3182.6

 TRANSPORT PROPERTIES (GASES ONLY)
   CONDUCTIVITY IN UNITS OF MILLIWATTS/(CM)(K)

 VISC,MILLIPOISE  0.31047  0.31171  0.31296  0.31421  0.31546  0.31671  0.31795  0.31920

  WITH EQUILIBRIUM REACTIONS

 Cp, KJ/(KG)(K)   17.0979  17.1517  17.2077  17.2658  17.3263  17.3891  17.4545  17.5226
 CONDUCTIVITY      7.7302   7.7981   7.8685   7.9413   8.0164   8.0940   8.1742   8.2571
 PRANDTL NUMBER    0.6867   0.6856   0.6844   0.6832   0.6818   0.6804   0.6789   0.6774

  WITH FROZEN REACTIONS

 Cp, KJ/(KG)(K)   16.6384  16.6576  16.6767  16.6957  16.7146  16.7335  16.7523  16.7710
 CONDUCTIVITY      7.3470   7.3841   7.4216   7.4592   7.4969   7.5346   7.5724   7.6102
 PRANDTL NUMBER    0.7031   0.7032   0.7032   0.7033   0.7033   0.7034   0.7034   0.7034

 MOLE FRACTIONS

 *H               0.00049  0.00053  0.00058  0.00062  0.00068  0.00073  0.00079  0.00086
 *H2              0.99951  0.99947  0.99942  0.99938  0.99932  0.99927  0.99921  0.99914

  * THERMODYNAMIC PROPERTIES FITTED TO 20000.K

 NOTE. WEIGHT FRACTION OF FUEL IN TOTAL FUELS AND OF OXIDANT IN TOTAL OXIDANTS









               THERMODYNAMIC EQUILIBRIUM PROPERTIES AT ASSIGNED

                           TEMPERATURE AND PRESSURE

 CASE =                

             REACTANT                    WT FRACTION      ENERGY      TEMP
                                          (SEE NOTE)     KJ/KG-MOL      K  
             H2                           1.0000000         0.000      0.000

 O/F=    0.00000  %FUEL=100.000000  R,EQ.RATIO= 0.000000  PHI,EQ.RATIO= 0.000000

 THERMODYNAMIC PROPERTIES

 P, BAR           0.54000  0.54000  0.54000  0.54000  0.54000  0.54000  0.54000  0.60000
 T, K             1880.00  1890.00  1900.00  1910.00  1920.00  1930.00  1940.00  1800.00
 RHO, KG/CU M    6.9609-3 6.9238-3 6.8871-3 6.8507-3 6.8147-3 6.7791-3 6.7438-3 8.0799-3
 H, KJ/KG         24343.3  24519.6  24696.6  24874.4  25053.1  25232.6  25413.0  22953.8
 U, KJ/KG         16585.6  16720.3  16855.8  16992.0  17129.1  17266.9  17405.6  15528.0
 G, KJ/KG       -154298.9-155249.6-156201.2-157153.8-158107.3-159061.7-160017.1-145944.9
 S, KJ/(KG)(K)    95.0224  95.1160  95.2094  95.3027  95.3960  95.4893  95.5825  93.8326

 M, (1/n)           2.015    2.015    2.015    2.015    2.015    2.015    2.014    2.015
 (dLV/dLP)t      -1.00023 -1.00025 -1.00027 -1.00029 -1.00031 -1.00034 -1.00036 -1.00012
 (dLV/dLT)p        1.0067   1.0072   1.0078   1.0083   1.0089   1.0095   1.0102   1.0035
 Cp, KJ/(KG)(K)   17.5934  17.6671  17.7439  17.8238  17.9070  17.9936  18.0838  17.0742
 GAMMAs            1.3114   1.3101   1.3088   1.3074   1.3060   1.3045   1.3030   1.3213
 SON VEL,M/SEC     3189.6   3196.5   3203.4   3210.2   3216.9   3223.6   3230.2   3132.4

 TRANSPORT PROPERTIES (GASES ONLY)
   CONDUCTIVITY IN UNITS OF MILLIWATTS/(CM)(K)

 VISC,MILLIPOISE  0.32045  0.32170  0.32295  0.32420  0.32544  0.32669  0.32795  0.31046

  WITH EQUILIBRIUM REACTIONS

 Cp, KJ/(KG)(K)   17.5934  17.6671  17.7439  17.8238  17.9070  17.9936  18.0838  17.0742
 CONDUCTIVITY      8.3430   8.4318   8.5239   8.6193   8.7182   8.8207   8.9271   7.7099
 PRANDTL NUMBER    0.6758   0.6740   0.6723   0.6704   0.6685   0.6664   0.6643   0.6875

  WITH FROZEN REACTIONS

 Cp, KJ/(KG)(K)   16.7896  16.8082  16.8266  16.8450  16.8633  16.8815  16.8997  16.6383
 CONDUCTIVITY      7.6480   7.6859   7.7239   7.7619   7.8000   7.8382   7.8764   7.3463
 PRANDTL NUMBER    0.7035   0.7035   0.7035   0.7036   0.7036   0.7036   0.7036   0.7031

 MOLE FRACTIONS

 *H               0.00093  0.00100  0.00108  0.00117  0.00126  0.00135  0.00145  0.00046
 *H2              0.99907  0.99900  0.99892  0.99883  0.99874  0.99865  0.99855  0.99954

  * THERMODYNAMIC PROPERTIES FITTED TO 20000.K

 NOTE. WEIGHT FRACTION OF FUEL IN TOTAL FUELS AND OF OXIDANT IN TOTAL OXIDANTS









               THERMODYNAMIC EQUILIBRIUM PROPERTIES AT ASSIGNED

                           TEMPERATURE AND PRESSURE

 CASE =                

             REACTANT                    WT FRACTION      ENERGY      TEMP
                                          (SEE NOTE)     KJ/KG-MOL      K  
             H2                           1.0000000         0.000      0.000

 O/F=    0.00000  %FUEL=100.000000  R,EQ.RATIO= 0.000000  PHI,EQ.RATIO= 0.000000

 THERMODYNAMIC PROPERTIES

 P, BAR           0.60000  0.60000  0.60000  0.60000  0.60000  0.60000  0.60000  0.60000
 T, K             1810.00  1820.00  1830.00  1840.00  1850.00  1860.00  1870.00  1880.00
 RHO, KG/CU M    8.0351-3 7.9908-3 7.9469-3 7.9035-3 7.8606-3 7.8181-3 7.7761-3 7.7345-3
 H, KJ/KG         23124.8  23296.4  23468.4  23641.1  23814.3  23988.2  24162.7  24337.9
 U, KJ/KG         15657.6  15787.7  15918.4  16049.6  16181.4  16313.7  16446.8  16580.4
 G, KJ/KG       -146883.6-147823.3-148764.0-149705.7-150648.2-151591.7-152536.2-153481.6
 S, KJ/(KG)(K)    93.9273  94.0218  94.1161  94.2102  94.3041  94.3978  94.4914  94.5848

 M, (1/n)           2.015    2.015    2.015    2.015    2.015    2.015    2.015    2.015
 (dLV/dLP)t      -1.00013 -1.00014 -1.00015 -1.00016 -1.00017 -1.00019 -1.00020 -1.00022
 (dLV/dLT)p        1.0038   1.0041   1.0044   1.0048   1.0051   1.0055   1.0059   1.0064
 Cp, KJ/(KG)(K)   17.1263  17.1804  17.2365  17.2948  17.3554  17.4184  17.4839  17.5521
 GAMMAs            1.3203   1.3192   1.3181   1.3170   1.3158   1.3146   1.3134   1.3121
 SON VEL,M/SEC     3139.9   3147.3   3154.6   3161.9   3169.1   3176.3   3183.4   3190.4

 TRANSPORT PROPERTIES (GASES ONLY)
   CONDUCTIVITY IN UNITS OF MILLIWATTS/(CM)(K)

 VISC,MILLIPOISE  0.31171  0.31296  0.31421  0.31545  0.31670  0.31795  0.31919  0.32044

  WITH EQUILIBRIUM REACTIONS

 Cp, KJ/(KG)(K)   17.1263  17.1804  17.2365  17.2948  17.3554  17.4184  17.4839  17.5521
 CONDUCTIVITY      7.7766   7.8454   7.9163   7.9895   8.0650   8.1430   8.2236   8.3070
 PRANDTL NUMBER    0.6865   0.6853   0.6841   0.6829   0.6815   0.6801   0.6786   0.6771

  WITH FROZEN REACTIONS

 Cp, KJ/(KG)(K)   16.6575  16.6766  16.6956  16.7146  16.7334  16.7522  16.7709  16.7895
 CONDUCTIVITY      7.3838   7.4214   7.4590   7.4966   7.5343   7.5721   7.6099   7.6477
 PRANDTL NUMBER    0.7032   0.7032   0.7033   0.7033   0.7034   0.7034   0.7035   0.7035

 MOLE FRACTIONS

 *H               0.00050  0.00055  0.00059  0.00064  0.00070  0.00075  0.00081  0.00088
 *H2              0.99950  0.99945  0.99941  0.99936  0.99930  0.99925  0.99919  0.99912

  * THERMODYNAMIC PROPERTIES FITTED TO 20000.K

 NOTE. WEIGHT FRACTION OF FUEL IN TOTAL FUELS AND OF OXIDANT IN TOTAL OXIDANTS









               THERMODYNAMIC EQUILIBRIUM PROPERTIES AT ASSIGNED

                           TEMPERATURE AND PRESSURE

 CASE =                

             REACTANT                    WT FRACTION      ENERGY      TEMP
                                          (SEE NOTE)     KJ/KG-MOL      K  
             H2                           1.0000000         0.000      0.000

 O/F=    0.00000  %FUEL=100.000000  R,EQ.RATIO= 0.000000  PHI,EQ.RATIO= 0.000000

 THERMODYNAMIC PROPERTIES

 P, BAR           0.60000  0.60000  0.60000  0.60000  0.60000  0.60000  0.67000  0.67000
 T, K             1890.00  1900.00  1910.00  1920.00  1930.00  1940.00  1800.00  1810.00
 RHO, KG/CU M    7.6933-3 7.6525-3 7.6121-3 7.5722-3 7.5326-3 7.4934-3 9.0227-3 8.9727-3
 H, KJ/KG         24513.8  24690.4  24867.7  25045.8  25224.8  25404.6  22951.0  23121.8
 U, KJ/KG         16714.7  16849.8  16985.6  17122.1  17259.4  17397.5  15525.3  15654.7
 G, KJ/KG       -154427.9-155375.1-156323.3-157272.4-158222.5-159173.4-145125.4-146059.6
 S, KJ/(KG)(K)    94.6781  94.7713  94.8644  94.9574  95.0504  95.1433  93.3758  93.4704

 M, (1/n)           2.015    2.015    2.015    2.015    2.015    2.014    2.015    2.015
 (dLV/dLP)t      -1.00024 -1.00026 -1.00028 -1.00030 -1.00032 -1.00034 -1.00011 -1.00012
 (dLV/dLT)p        1.0069   1.0074   1.0079   1.0085   1.0090   1.0097   1.0033   1.0036
 Cp, KJ/(KG)(K)   17.6229  17.6967  17.7734  17.8533  17.9364  18.0229  17.0508  17.1011
 GAMMAs            1.3108   1.3095   1.3082   1.3068   1.3054   1.3040   1.3218   1.3207
 SON VEL,M/SEC     3197.4   3204.3   3211.1   3217.9   3224.6   3231.3   3132.9   3140.4

 TRANSPORT PROPERTIES (GASES ONLY)
   CONDUCTIVITY IN UNITS OF MILLIWATTS/(CM)(K)

 VISC,MILLIPOISE  0.32169  0.32294  0.32418  0.32543  0.32668  0.32793  0.31046  0.31171

  WITH EQUILIBRIUM REACTIONS

 Cp, KJ/(KG)(K)   17.6229  17.6967  17.7734  17.8533  17.9364  18.0229  17.0508  17.1011
 CONDUCTIVITY      8.3932   8.4825   8.5749   8.6706   8.7698   8.8727   7.6902   7.7554
 PRANDTL NUMBER    0.6754   0.6737   0.6719   0.6701   0.6681   0.6661   0.6884   0.6873

  WITH FROZEN REACTIONS

 Cp, KJ/(KG)(K)   16.8081  16.8265  16.8449  16.8632  16.8814  16.8995  16.6383  16.6574
 CONDUCTIVITY      7.6856   7.7235   7.7615   7.7996   7.8377   7.8759   7.3461   7.3836
 PRANDTL NUMBER    0.7035   0.7036   0.7036   0.7036   0.7036   0.7037   0.7032   0.7032

 MOLE FRACTIONS

 *H               0.00095  0.00103  0.00111  0.00119  0.00128  0.00138  0.00044  0.00048
 *H2              0.99905  0.99897  0.99889  0.99881  0.99872  0.99862  0.99956  0.99952

  * THERMODYNAMIC PROPERTIES FITTED TO 20000.K

 NOTE. WEIGHT FRACTION OF FUEL IN TOTAL FUELS AND OF OXIDANT IN TOTAL OXIDANTS









               THERMODYNAMIC EQUILIBRIUM PROPERTIES AT ASSIGNED

                           TEMPERATURE AND PRESSURE

 CASE =                

             REACTANT                    WT FRACTION      ENERGY      TEMP
                                          (SEE NOTE)     KJ/KG-MOL      K  
             H2                           1.0000000         0.000      0.000

 O/F=    0.00000  %FUEL=100.000000  R,EQ.RATIO= 0.000000  PHI,EQ.RATIO= 0.000000

 THERMODYNAMIC PROPERTIES

 P, BAR           0.67000  0.67000  0.67000  0.67000  0.67000  0.67000  0.67000  0.67000
 T, K             1820.00  1830.00  1840.00  1850.00  1860.00  1870.00  1880.00  1890.00
 RHO, KG/CU M    8.9232-3 8.8742-3 8.8258-3 8.7778-3 8.7304-3 8.6835-3 8.6370-3 8.5910-3
 H, KJ/KG         23293.1  23464.9  23637.2  23810.1  23983.7  24157.8  24332.6  24508.0
 U, KJ/KG         15784.5  15914.9  16045.8  16177.3  16309.3  16442.0  16575.3  16709.2
 G, KJ/KG       -146994.8-147930.9-148868.0-149806.0-150744.9-151684.8-152625.6-153567.3
 S, KJ/(KG)(K)    93.5647  93.6589  93.7528  93.8465  93.9401  94.0335  94.1267  94.2197

 M, (1/n)           2.015    2.015    2.015    2.015    2.015    2.015    2.015    2.015
 (dLV/dLP)t      -1.00013 -1.00014 -1.00015 -1.00016 -1.00018 -1.00019 -1.00021 -1.00022
 (dLV/dLT)p        1.0039   1.0042   1.0045   1.0048   1.0052   1.0056   1.0060   1.0065
 Cp, KJ/(KG)(K)   17.1533  17.2074  17.2636  17.3220  17.3826  17.4456  17.5110  17.5791
 GAMMAs            1.3197   1.3186   1.3175   1.3164   1.3152   1.3140   1.3128   1.3116
 SON VEL,M/SEC     3147.8   3155.2   3162.5   3169.8   3177.0   3184.1   3191.2   3198.2

 TRANSPORT PROPERTIES (GASES ONLY)
   CONDUCTIVITY IN UNITS OF MILLIWATTS/(CM)(K)

 VISC,MILLIPOISE  0.31295  0.31420  0.31545  0.31669  0.31794  0.31919  0.32043  0.32168

  WITH EQUILIBRIUM REACTIONS

 Cp, KJ/(KG)(K)   17.1533  17.2074  17.2636  17.3220  17.3826  17.4456  17.5110  17.5791
 CONDUCTIVITY      7.8224   7.8916   7.9628   8.0363   8.1121   8.1904   8.2713   8.3549
 PRANDTL NUMBER    0.6863   0.6851   0.6839   0.6826   0.6813   0.6799   0.6784   0.6768

  WITH FROZEN REACTIONS

 Cp, KJ/(KG)(K)   16.6765  16.6956  16.7145  16.7334  16.7521  16.7708  16.7894  16.8080
 CONDUCTIVITY      7.4212   7.4588   7.4964   7.5341   7.5718   7.6096   7.6474   7.6852
 PRANDTL NUMBER    0.7033   0.7033   0.7033   0.7034   0.7034   0.7035   0.7035   0.7035

 MOLE FRACTIONS

 *H               0.00052  0.00056  0.00061  0.00066  0.00071  0.00077  0.00083  0.00090
 *H2              0.99948  0.99944  0.99939  0.99934  0.99929  0.99923  0.99917  0.99910

  * THERMODYNAMIC PROPERTIES FITTED TO 20000.K

 NOTE. WEIGHT FRACTION OF FUEL IN TOTAL FUELS AND OF OXIDANT IN TOTAL OXIDANTS









               THERMODYNAMIC EQUILIBRIUM PROPERTIES AT ASSIGNED

                           TEMPERATURE AND PRESSURE

 CASE =                

             REACTANT                    WT FRACTION      ENERGY      TEMP
                                          (SEE NOTE)     KJ/KG-MOL      K  
             H2                           1.0000000         0.000      0.000

 O/F=    0.00000  %FUEL=100.000000  R,EQ.RATIO= 0.000000  PHI,EQ.RATIO= 0.000000

 THERMODYNAMIC PROPERTIES

 P, BAR           0.67000  0.67000  0.67000  0.67000  0.67000  0.74000  0.74000  0.74000
 T, K             1900.00  1910.00  1920.00  1930.00  1940.00  1800.00  1810.00  1820.00
 RHO, KG/CU M    8.5455-3 8.5005-3 8.4558-3 8.4117-3 8.3679-3 9.9654-3 9.9102-3 9.8556-3
 H, KJ/KG         24684.2  24861.0  25038.7  25217.1  25396.3  22948.7  23119.2  23290.3
 U, KJ/KG         16843.8  16979.1  17115.1  17251.9  17389.5  15523.0  15652.2  15781.8
 G, KJ/KG       -154509.9-155453.5-156398.1-157343.5-158289.9-144387.5-145317.6-146248.6
 S, KJ/(KG)(K)    94.3127  94.4055  94.4983  94.5910  94.6836  92.9645  93.0590  93.1532

 M, (1/n)           2.015    2.015    2.015    2.015    2.015    2.015    2.015    2.015
 (dLV/dLP)t      -1.00024 -1.00026 -1.00028 -1.00030 -1.00033 -1.00010 -1.00011 -1.00012
 (dLV/dLT)p        1.0070   1.0075   1.0080   1.0086   1.0092   1.0031   1.0034   1.0037
 Cp, KJ/(KG)(K)   17.6499  17.7235  17.8000  17.8797  17.9625  17.0307  17.0795  17.1301
 GAMMAs            1.3103   1.3090   1.3077   1.3063   1.3049   1.3221   1.3211   1.3201
 SON VEL,M/SEC     3205.2   3212.1   3218.9   3225.7   3232.4   3133.3   3140.9   3148.3

 TRANSPORT PROPERTIES (GASES ONLY)
   CONDUCTIVITY IN UNITS OF MILLIWATTS/(CM)(K)

 VISC,MILLIPOISE  0.32293  0.32417  0.32542  0.32667  0.32792  0.31046  0.31170  0.31295

  WITH EQUILIBRIUM REACTIONS

 Cp, KJ/(KG)(K)   17.6499  17.7235  17.8000  17.8797  17.9625  17.0307  17.0795  17.1301
 CONDUCTIVITY      8.4414   8.5309   8.6235   8.7194   8.8187   7.6734   7.7372   7.8028
 PRANDTL NUMBER    0.6752   0.6735   0.6717   0.6699   0.6679   0.6890   0.6881   0.6870

  WITH FROZEN REACTIONS

 Cp, KJ/(KG)(K)   16.8264  16.8448  16.8631  16.8813  16.8994  16.6382  16.6574  16.6765
 CONDUCTIVITY      7.7231   7.7611   7.7991   7.8372   7.8753   7.3460   7.3835   7.4210
 PRANDTL NUMBER    0.7036   0.7036   0.7036   0.7036   0.7037   0.7032   0.7032   0.7033

 MOLE FRACTIONS

 *H               0.00097  0.00105  0.00113  0.00121  0.00130  0.00042  0.00045  0.00049
 *H2              0.99903  0.99895  0.99887  0.99879  0.99870  0.99958  0.99955  0.99951

  * THERMODYNAMIC PROPERTIES FITTED TO 20000.K

 NOTE. WEIGHT FRACTION OF FUEL IN TOTAL FUELS AND OF OXIDANT IN TOTAL OXIDANTS









               THERMODYNAMIC EQUILIBRIUM PROPERTIES AT ASSIGNED

                           TEMPERATURE AND PRESSURE

 CASE =                

             REACTANT                    WT FRACTION      ENERGY      TEMP
                                          (SEE NOTE)     KJ/KG-MOL      K  
             H2                           1.0000000         0.000      0.000

 O/F=    0.00000  %FUEL=100.000000  R,EQ.RATIO= 0.000000  PHI,EQ.RATIO= 0.000000

 THERMODYNAMIC PROPERTIES

 P, BAR           0.74000  0.74000  0.74000  0.74000  0.74000  0.74000  0.74000  0.74000
 T, K             1830.00  1840.00  1850.00  1860.00  1870.00  1880.00  1890.00  1900.00
 RHO, KG/CU M    9.8015-3 9.7480-3 9.6951-3 9.6427-3 9.5909-3 9.5396-3 9.4888-3 9.4386-3
 H, KJ/KG         23461.8  23633.9  23806.6  23979.8  24153.6  24328.0  24503.1  24678.9
 U, KJ/KG         15912.0  16042.6  16173.8  16305.6  16437.9  16570.9  16704.5  16838.7
 G, KJ/KG       -147180.6-148113.6-149047.5-149982.3-150918.0-151854.7-152792.3-153730.8
 S, KJ/(KG)(K)    93.2472  93.3410  93.4346  93.5280  93.6212  93.7142  93.8071  93.8999

 M, (1/n)           2.015    2.015    2.015    2.015    2.015    2.015    2.015    2.015
 (dLV/dLP)t      -1.00013 -1.00014 -1.00016 -1.00017 -1.00018 -1.00020 -1.00021 -1.00023
 (dLV/dLT)p        1.0040   1.0043   1.0046   1.0050   1.0053   1.0057   1.0062   1.0066
 Cp, KJ/(KG)(K)   17.1825  17.2369  17.2934  17.3520  17.4128  17.4760  17.5416  17.6099
 GAMMAs            1.3191   1.3180   1.3169   1.3157   1.3146   1.3134   1.3122   1.3110
 SON VEL,M/SEC     3155.7   3163.1   3170.4   3177.6   3184.8   3191.9   3199.0   3206.0

 TRANSPORT PROPERTIES (GASES ONLY)
   CONDUCTIVITY IN UNITS OF MILLIWATTS/(CM)(K)

 VISC,MILLIPOISE  0.31420  0.31544  0.31669  0.31793  0.31918  0.32043  0.32167  0.32292

  WITH EQUILIBRIUM REACTIONS

 Cp, KJ/(KG)(K)   17.1825  17.2369  17.2934  17.3520  17.4128  17.4760  17.5416  17.6099
 CONDUCTIVITY      7.8704   7.9400   8.0117   8.0857   8.1620   8.2408   8.3222   8.4063
 PRANDTL NUMBER    0.6859   0.6848   0.6836   0.6823   0.6809   0.6795   0.6780   0.6765

  WITH FROZEN REACTIONS

 Cp, KJ/(KG)(K)   16.6955  16.7144  16.7333  16.7521  16.7708  16.7894  16.8079  16.8263
 CONDUCTIVITY      7.4586   7.4962   7.5339   7.5716   7.6093   7.6471   7.6849   7.7228
 PRANDTL NUMBER    0.7033   0.7033   0.7034   0.7034   0.7035   0.7035   0.7035   0.7036

 MOLE FRACTIONS

 *H               0.00053  0.00058  0.00063  0.00068  0.00073  0.00079  0.00086  0.00092
 *H2              0.99947  0.99942  0.99937  0.99932  0.99927  0.99921  0.99914  0.99908

  * THERMODYNAMIC PROPERTIES FITTED TO 20000.K

 NOTE. WEIGHT FRACTION OF FUEL IN TOTAL FUELS AND OF OXIDANT IN TOTAL OXIDANTS









               THERMODYNAMIC EQUILIBRIUM PROPERTIES AT ASSIGNED

                           TEMPERATURE AND PRESSURE

 CASE =                

             REACTANT                    WT FRACTION      ENERGY      TEMP
                                          (SEE NOTE)     KJ/KG-MOL      K  
             H2                           1.0000000         0.000      0.000

 O/F=    0.00000  %FUEL=100.000000  R,EQ.RATIO= 0.000000  PHI,EQ.RATIO= 0.000000

 THERMODYNAMIC PROPERTIES

 P, BAR           0.74000  0.74000  0.74000  0.74000  0.82500  0.82500  0.82500  0.82500
 T, K             1910.00  1920.00  1930.00  1940.00  1800.00  1810.00  1820.00  1830.00
 RHO, KG/CU M    9.3888-3 9.3395-3 9.2908-3 9.2425-3 1.1110-2 1.1049-2 1.0988-2 1.0928-2
 H, KJ/KG         24855.3  25032.5  25210.4  25389.1  22946.2  23116.5  23287.3  23458.6
 U, KJ/KG         16973.6  17109.2  17245.5  17382.6  15520.6  15649.6  15779.0  15908.9
 G, KJ/KG       -154670.3-155610.7-156552.0-157494.2-143580.1-144505.7-145432.2-146359.7
 S, KJ/(KG)(K)    93.9925  94.0850  94.1774  94.2698  92.5146  92.6089  92.7031  92.7969

 M, (1/n)           2.015    2.015    2.015    2.015    2.015    2.015    2.015    2.015
 (dLV/dLP)t      -1.00025 -1.00027 -1.00029 -1.00031 -1.00010 -1.00011 -1.00012 -1.00013
 (dLV/dLT)p        1.0071   1.0076   1.0081   1.0087   1.0030   1.0032   1.0035   1.0038
 Cp, KJ/(KG)(K)   17.6808  17.7545  17.8311  17.9108  17.0099  17.0571  17.1061  17.1567
 GAMMAs            1.3097   1.3084   1.3071   1.3057   1.3225   1.3215   1.3205   1.3195
 SON VEL,M/SEC     3212.9   3219.8   3226.6   3233.3   3133.8   3141.3   3148.8   3156.3

 TRANSPORT PROPERTIES (GASES ONLY)
   CONDUCTIVITY IN UNITS OF MILLIWATTS/(CM)(K)

 VISC,MILLIPOISE  0.32417  0.32541  0.32666  0.32791  0.31045  0.31170  0.31294  0.31419

  WITH EQUILIBRIUM REACTIONS

 Cp, KJ/(KG)(K)   17.6808  17.7545  17.8311  17.9108  17.0099  17.0571  17.1061  17.1567
 CONDUCTIVITY      8.4932   8.5831   8.6762   8.7725   7.6559   7.7183   7.7825   7.8484
 PRANDTL NUMBER    0.6748   0.6731   0.6713   0.6695   0.6898   0.6888   0.6879   0.6868

  WITH FROZEN REACTIONS

 Cp, KJ/(KG)(K)   16.8447  16.8630  16.8812  16.8993  16.6382  16.6573  16.6764  16.6955
 CONDUCTIVITY      7.7608   7.7987   7.8368   7.8749   7.3458   7.3833   7.4208   7.4584
 PRANDTL NUMBER    0.7036   0.7036   0.7037   0.7037   0.7032   0.7032   0.7033   0.7033

 MOLE FRACTIONS

 *H               0.00100  0.00107  0.00115  0.00124  0.00039  0.00043  0.00047  0.00051
 *H2              0.99900  0.99893  0.99885  0.99876  0.99961  0.99957  0.99953  0.99949

  * THERMODYNAMIC PROPERTIES FITTED TO 20000.K

 NOTE. WEIGHT FRACTION OF FUEL IN TOTAL FUELS AND OF OXIDANT IN TOTAL OXIDANTS









               THERMODYNAMIC EQUILIBRIUM PROPERTIES AT ASSIGNED

                           TEMPERATURE AND PRESSURE

 CASE =                

             REACTANT                    WT FRACTION      ENERGY      TEMP
                                          (SEE NOTE)     KJ/KG-MOL      K  
             H2                           1.0000000         0.000      0.000

 O/F=    0.00000  %FUEL=100.000000  R,EQ.RATIO= 0.000000  PHI,EQ.RATIO= 0.000000

 THERMODYNAMIC PROPERTIES

 P, BAR           0.82500  0.82500  0.82500  0.82500  0.82500  0.82500  0.82500  0.82500
 T, K             1840.00  1850.00  1860.00  1870.00  1880.00  1890.00  1900.00  1910.00
 RHO, KG/CU M    1.0868-2 1.0809-2 1.0751-2 1.0693-2 1.0636-2 1.0579-2 1.0523-2 1.0468-2
 H, KJ/KG         23630.5  23802.8  23975.8  24149.2  24323.3  24498.0  24673.4  24849.4
 U, KJ/KG         16039.3  16170.2  16301.7  16433.7  16566.3  16699.6  16833.4  16967.9
 G, KJ/KG       -147288.2-148217.5-149147.8-150079.1-151011.2-151944.3-152878.4-153813.3
 S, KJ/(KG)(K)    92.8906  92.9840  93.0772  93.1702  93.2631  93.3558  93.4483  93.5407

 M, (1/n)           2.015    2.015    2.015    2.015    2.015    2.015    2.015    2.015
 (dLV/dLP)t      -1.00014 -1.00015 -1.00016 -1.00017 -1.00019 -1.00020 -1.00022 -1.00024
 (dLV/dLT)p        1.0041   1.0044   1.0047   1.0051   1.0054   1.0058   1.0063   1.0067
 Cp, KJ/(KG)(K)   17.2092  17.2637  17.3201  17.3787  17.4396  17.5027  17.5683  17.6364
 GAMMAs            1.3185   1.3174   1.3163   1.3152   1.3140   1.3129   1.3117   1.3104
 SON VEL,M/SEC     3163.7   3171.0   3178.3   3185.5   3192.6   3199.7   3206.8   3213.8

 TRANSPORT PROPERTIES (GASES ONLY)
   CONDUCTIVITY IN UNITS OF MILLIWATTS/(CM)(K)

 VISC,MILLIPOISE  0.31544  0.31668  0.31793  0.31917  0.32042  0.32166  0.32291  0.32416

  WITH EQUILIBRIUM REACTIONS

 Cp, KJ/(KG)(K)   17.2092  17.2637  17.3201  17.3787  17.4396  17.5027  17.5683  17.6364
 CONDUCTIVITY      7.9163   7.9862   8.0582   8.1325   8.2091   8.2881   8.3698   8.4541
 PRANDTL NUMBER    0.6857   0.6846   0.6833   0.6821   0.6807   0.6793   0.6778   0.6762

  WITH FROZEN REACTIONS

 Cp, KJ/(KG)(K)   16.7144  16.7332  16.7520  16.7707  16.7893  16.8078  16.8262  16.8446
 CONDUCTIVITY      7.4960   7.5336   7.5713   7.6090   7.6468   7.6846   7.7225   7.7604
 PRANDTL NUMBER    0.7034   0.7034   0.7034   0.7035   0.7035   0.7035   0.7036   0.7036

 MOLE FRACTIONS

 *H               0.00055  0.00059  0.00064  0.00070  0.00075  0.00081  0.00087  0.00094
 *H2              0.99945  0.99941  0.99936  0.99930  0.99925  0.99919  0.99913  0.99906

  * THERMODYNAMIC PROPERTIES FITTED TO 20000.K

 NOTE. WEIGHT FRACTION OF FUEL IN TOTAL FUELS AND OF OXIDANT IN TOTAL OXIDANTS









               THERMODYNAMIC EQUILIBRIUM PROPERTIES AT ASSIGNED

                           TEMPERATURE AND PRESSURE

 CASE =                

             REACTANT                    WT FRACTION      ENERGY      TEMP
                                          (SEE NOTE)     KJ/KG-MOL      K  
             H2                           1.0000000         0.000      0.000

 O/F=    0.00000  %FUEL=100.000000  R,EQ.RATIO= 0.000000  PHI,EQ.RATIO= 0.000000

 THERMODYNAMIC PROPERTIES

 P, BAR           0.82500  0.82500  0.82500  0.91000  0.91000  0.91000  0.91000  0.91000
 T, K             1920.00  1930.00  1940.00  1800.00  1810.00  1820.00  1830.00  1840.00
 RHO, KG/CU M    1.0413-2 1.0358-2 1.0304-2 1.2255-2 1.2187-2 1.2120-2 1.2054-2 1.1988-2
 H, KJ/KG         25026.1  25203.6  25381.8  22944.1  23114.2  23284.8  23455.9  23627.5
 U, KJ/KG         17103.1  17238.9  17375.5  15518.6  15647.3  15776.6  15906.3  16036.5
 G, KJ/KG       -154749.2-155686.0-156623.7-142851.9-143773.5-144696.0-145619.4-146543.8
 S, KJ/(KG)(K)    93.6330  93.7251  93.8172  92.1089  92.2031  92.2971  92.3909  92.4844

 M, (1/n)           2.015    2.015    2.015    2.016    2.015    2.015    2.015    2.015
 (dLV/dLP)t      -1.00025 -1.00027 -1.00029 -1.00009 -1.00010 -1.00011 -1.00012 -1.00013
 (dLV/dLT)p        1.0072   1.0077   1.0083   1.0028   1.0031   1.0033   1.0036   1.0039
 Cp, KJ/(KG)(K)   17.7072  17.7808  17.8572  16.9921  17.0380  17.0855  17.1346  17.1855
 GAMMAs            1.3092   1.3079   1.3066   1.3229   1.3219   1.3209   1.3199   1.3189
 SON VEL,M/SEC     3220.7   3227.5   3234.3   3134.2   3141.7   3149.3   3156.7   3164.1

 TRANSPORT PROPERTIES (GASES ONLY)
   CONDUCTIVITY IN UNITS OF MILLIWATTS/(CM)(K)

 VISC,MILLIPOISE  0.32540  0.32665  0.32790  0.31045  0.31169  0.31294  0.31419  0.31543

  WITH EQUILIBRIUM REACTIONS

 Cp, KJ/(KG)(K)   17.7072  17.7808  17.8572  16.9921  17.0380  17.0855  17.1346  17.1855
 CONDUCTIVITY      8.5413   8.6314   8.7246   7.6409   7.7021   7.7650   7.8296   7.8960
 PRANDTL NUMBER    0.6746   0.6729   0.6711   0.6904   0.6895   0.6886   0.6876   0.6865

  WITH FROZEN REACTIONS

 Cp, KJ/(KG)(K)   16.8629  16.8810  16.8992  16.6381  16.6573  16.6764  16.6954  16.7143
 CONDUCTIVITY      7.7983   7.8364   7.8744   7.3457   7.3832   7.4207   7.4582   7.4958
 PRANDTL NUMBER    0.7036   0.7037   0.7037   0.7032   0.7032   0.7033   0.7033   0.7034

 MOLE FRACTIONS

 *H               0.00102  0.00109  0.00118  0.00038  0.00041  0.00044  0.00048  0.00052
 *H2              0.99898  0.99891  0.99882  0.99962  0.99959  0.99956  0.99952  0.99948

  * THERMODYNAMIC PROPERTIES FITTED TO 20000.K

 NOTE. WEIGHT FRACTION OF FUEL IN TOTAL FUELS AND OF OXIDANT IN TOTAL OXIDANTS









               THERMODYNAMIC EQUILIBRIUM PROPERTIES AT ASSIGNED

                           TEMPERATURE AND PRESSURE

 CASE =                

             REACTANT                    WT FRACTION      ENERGY      TEMP
                                          (SEE NOTE)     KJ/KG-MOL      K  
             H2                           1.0000000         0.000      0.000

 O/F=    0.00000  %FUEL=100.000000  R,EQ.RATIO= 0.000000  PHI,EQ.RATIO= 0.000000

 THERMODYNAMIC PROPERTIES

 P, BAR           0.91000  0.91000  0.91000  0.91000  0.91000  0.91000  0.91000  0.91000
 T, K             1850.00  1860.00  1870.00  1880.00  1890.00  1900.00  1910.00  1920.00
 RHO, KG/CU M    1.1923-2 1.1858-2 1.1795-2 1.1732-2 1.1669-2 1.1607-2 1.1546-2 1.1486-2
 H, KJ/KG         23799.6  23972.3  24145.5  24319.3  24493.7  24668.7  24844.3  25020.7
 U, KJ/KG         16167.1  16298.4  16430.1  16562.4  16695.4  16828.9  16963.0  17097.8
 G, KJ/KG       -147469.1-148395.3-149322.5-150250.6-151179.6-152109.6-153040.4-153972.2
 S, KJ/(KG)(K)    92.5777  92.6708  92.7636  92.8563  92.9488  93.0412  93.1334  93.2255

 M, (1/n)           2.015    2.015    2.015    2.015    2.015    2.015    2.015    2.015
 (dLV/dLP)t      -1.00014 -1.00015 -1.00017 -1.00018 -1.00019 -1.00021 -1.00022 -1.00024
 (dLV/dLT)p        1.0042   1.0045   1.0048   1.0052   1.0056   1.0060   1.0064   1.0069
 Cp, KJ/(KG)(K)   17.2382  17.2929  17.3496  17.4084  17.4694  17.5327  17.5985  17.6667
 GAMMAs            1.3178   1.3168   1.3157   1.3146   1.3134   1.3123   1.3111   1.3098
 SON VEL,M/SEC     3171.5   3178.8   3186.1   3193.3   3200.4   3207.5   3214.5   3221.4

 TRANSPORT PROPERTIES (GASES ONLY)
   CONDUCTIVITY IN UNITS OF MILLIWATTS/(CM)(K)

 VISC,MILLIPOISE  0.31668  0.31792  0.31917  0.32041  0.32166  0.32290  0.32415  0.32539

  WITH EQUILIBRIUM REACTIONS

 Cp, KJ/(KG)(K)   17.2382  17.2929  17.3496  17.4084  17.4694  17.5327  17.5985  17.6667
 CONDUCTIVITY      7.9644   8.0347   8.1072   8.1819   8.2590   8.3385   8.4206   8.5054
 PRANDTL NUMBER    0.6854   0.6843   0.6830   0.6817   0.6804   0.6789   0.6774   0.6759

  WITH FROZEN REACTIONS

 Cp, KJ/(KG)(K)   16.7332  16.7519  16.7706  16.7892  16.8077  16.8261  16.8445  16.8628
 CONDUCTIVITY      7.5334   7.5711   7.6088   7.6466   7.6843   7.7222   7.7601   7.7980
 PRANDTL NUMBER    0.7034   0.7034   0.7035   0.7035   0.7036   0.7036   0.7036   0.7036

 MOLE FRACTIONS

 *H               0.00057  0.00061  0.00066  0.00072  0.00077  0.00083  0.00090  0.00097
 *H2              0.99943  0.99939  0.99934  0.99928  0.99923  0.99917  0.99910  0.99903

  * THERMODYNAMIC PROPERTIES FITTED TO 20000.K

 NOTE. WEIGHT FRACTION OF FUEL IN TOTAL FUELS AND OF OXIDANT IN TOTAL OXIDANTS









               THERMODYNAMIC EQUILIBRIUM PROPERTIES AT ASSIGNED

                           TEMPERATURE AND PRESSURE

 CASE =                

             REACTANT                    WT FRACTION      ENERGY      TEMP
                                          (SEE NOTE)     KJ/KG-MOL      K  
             H2                           1.0000000         0.000      0.000

 O/F=    0.00000  %FUEL=100.000000  R,EQ.RATIO= 0.000000  PHI,EQ.RATIO= 0.000000

 THERMODYNAMIC PROPERTIES

 P, BAR           0.91000  0.91000   1.0000   1.0000   1.0000   1.0000   1.0000   1.0000
 T, K             1930.00  1940.00  1800.00  1810.00  1820.00  1830.00  1840.00  1850.00
 RHO, KG/CU M    1.1426-2 1.1366-2 1.3467-2 1.3393-2 1.3319-2 1.3246-2 1.3174-2 1.3102-2
 H, KJ/KG         25197.7  25375.4  22942.1  23112.1  23282.5  23453.4  23624.8  23796.7
 U, KJ/KG         17233.2  17369.4  15516.7  15645.3  15774.3  15903.9  16033.8  16164.3
 G, KJ/KG       -154905.0-155838.6-142151.6-143069.3-143987.8-144907.4-145827.9-146749.3
 S, KJ/(KG)(K)    93.3174  93.4093  91.7187  91.8129  91.9068  92.0004  92.0938  92.1870

 M, (1/n)           2.015    2.015    2.016    2.015    2.015    2.015    2.015    2.015
 (dLV/dLP)t      -1.00026 -1.00028 -1.00009 -1.00010 -1.00011 -1.00011 -1.00012 -1.00013
 (dLV/dLT)p        1.0073   1.0079   1.0027   1.0029   1.0032   1.0034   1.0037   1.0040
 Cp, KJ/(KG)(K)   17.7376  17.8112  16.9757  17.0204  17.0666  17.1143  17.1638  17.2149
 GAMMAs            1.3086   1.3073   1.3232   1.3222   1.3213   1.3203   1.3193   1.3183
 SON VEL,M/SEC     3228.3   3235.2   3134.5   3142.1   3149.7   3157.1   3164.6   3172.0

 TRANSPORT PROPERTIES (GASES ONLY)
   CONDUCTIVITY IN UNITS OF MILLIWATTS/(CM)(K)

 VISC,MILLIPOISE  0.32664  0.32789  0.31045  0.31169  0.31294  0.31418  0.31543  0.31667

  WITH EQUILIBRIUM REACTIONS

 Cp, KJ/(KG)(K)   17.7376  17.8112  16.9757  17.0204  17.0666  17.1143  17.1638  17.2149
 CONDUCTIVITY      8.5930   8.6835   7.6272   7.6873   7.7490   7.8124   7.8774   7.9443
 PRANDTL NUMBER    0.6743   0.6725   0.6910   0.6901   0.6892   0.6883   0.6873   0.6862

  WITH FROZEN REACTIONS

 Cp, KJ/(KG)(K)   16.8809  16.8991  16.6381  16.6573  16.6764  16.6954  16.7143  16.7331
 CONDUCTIVITY      7.8360   7.8740   7.3456   7.3830   7.4205   7.4581   7.4956   7.5333
 PRANDTL NUMBER    0.7037   0.7037   0.7032   0.7032   0.7033   0.7033   0.7034   0.7034

 MOLE FRACTIONS

 *H               0.00104  0.00112  0.00036  0.00039  0.00042  0.00046  0.00050  0.00054
 *H2              0.99896  0.99888  0.99964  0.99961  0.99958  0.99954  0.99950  0.99946

  * THERMODYNAMIC PROPERTIES FITTED TO 20000.K

 NOTE. WEIGHT FRACTION OF FUEL IN TOTAL FUELS AND OF OXIDANT IN TOTAL OXIDANTS









               THERMODYNAMIC EQUILIBRIUM PROPERTIES AT ASSIGNED

                           TEMPERATURE AND PRESSURE

 CASE =                

             REACTANT                    WT FRACTION      ENERGY      TEMP
                                          (SEE NOTE)     KJ/KG-MOL      K  
             H2                           1.0000000         0.000      0.000

 O/F=    0.00000  %FUEL=100.000000  R,EQ.RATIO= 0.000000  PHI,EQ.RATIO= 0.000000

 THERMODYNAMIC PROPERTIES

 P, BAR            1.0000   1.0000   1.0000   1.0000   1.0000   1.0000   1.0000   1.0000
 T, K             1860.00  1870.00  1880.00  1890.00  1900.00  1910.00  1920.00  1930.00
 RHO, KG/CU M    1.3031-2 1.2961-2 1.2892-2 1.2823-2 1.2756-2 1.2688-2 1.2622-2 1.2556-2
 H, KJ/KG         23969.1  24142.1  24315.6  24489.7  24664.4  24839.7  25015.7  25192.3
 U, KJ/KG         16295.3  16426.8  16558.9  16691.5  16824.7  16958.5  17093.0  17228.0
 G, KJ/KG       -147671.6-148594.9-149519.0-150444.2-151370.2-152297.2-153225.0-154153.8
 S, KJ/(KG)(K)    92.2800  92.3727  92.4652  92.5576  92.6498  92.7418  92.8337  92.9255

 M, (1/n)           2.015    2.015    2.015    2.015    2.015    2.015    2.015    2.015
 (dLV/dLP)t      -1.00015 -1.00016 -1.00017 -1.00018 -1.00020 -1.00021 -1.00023 -1.00025
 (dLV/dLT)p        1.0043   1.0046   1.0049   1.0053   1.0057   1.0061   1.0065   1.0070
 Cp, KJ/(KG)(K)   17.2679  17.3229  17.3798  17.4389  17.5001  17.5637  17.6296  17.6981
 GAMMAs            1.3172   1.3161   1.3151   1.3139   1.3128   1.3116   1.3105   1.3092
 SON VEL,M/SEC     3179.3   3186.6   3193.8   3201.0   3208.1   3215.2   3222.2   3229.1

 TRANSPORT PROPERTIES (GASES ONLY)
   CONDUCTIVITY IN UNITS OF MILLIWATTS/(CM)(K)

 VISC,MILLIPOISE  0.31792  0.31916  0.32041  0.32165  0.32290  0.32414  0.32539  0.32663

  WITH EQUILIBRIUM REACTIONS

 Cp, KJ/(KG)(K)   17.2679  17.3229  17.3798  17.4389  17.5001  17.5637  17.6296  17.6981
 CONDUCTIVITY      8.0132   8.0841   8.1571   8.2323   8.3099   8.3899   8.4725   8.5578
 PRANDTL NUMBER    0.6851   0.6839   0.6827   0.6814   0.6800   0.6786   0.6771   0.6755

  WITH FROZEN REACTIONS

 Cp, KJ/(KG)(K)   16.7519  16.7706  16.7891  16.8076  16.8261  16.8444  16.8627  16.8809
 CONDUCTIVITY      7.5709   7.6086   7.6463   7.6841   7.7219   7.7598   7.7977   7.8357
 PRANDTL NUMBER    0.7034   0.7035   0.7035   0.7036   0.7036   0.7036   0.7037   0.7037

 MOLE FRACTIONS

 *H               0.00058  0.00063  0.00068  0.00074  0.00079  0.00086  0.00092  0.00099
 *H2              0.99942  0.99937  0.99932  0.99926  0.99921  0.99914  0.99908  0.99901

  * THERMODYNAMIC PROPERTIES FITTED TO 20000.K

 NOTE. WEIGHT FRACTION OF FUEL IN TOTAL FUELS AND OF OXIDANT IN TOTAL OXIDANTS









               THERMODYNAMIC EQUILIBRIUM PROPERTIES AT ASSIGNED

                           TEMPERATURE AND PRESSURE

 CASE =                

             REACTANT                    WT FRACTION      ENERGY      TEMP
                                          (SEE NOTE)     KJ/KG-MOL      K  
             H2                           1.0000000         0.000      0.000

 O/F=    0.00000  %FUEL=100.000000  R,EQ.RATIO= 0.000000  PHI,EQ.RATIO= 0.000000

 THERMODYNAMIC PROPERTIES

 P, BAR            1.0000   1.1000   1.1000   1.1000   1.1000   1.1000   1.1000   1.1000
 T, K             1940.00  1800.00  1810.00  1820.00  1830.00  1840.00  1850.00  1860.00
 RHO, KG/CU M    1.2491-2 1.4814-2 1.4732-2 1.4651-2 1.4571-2 1.4491-2 1.4412-2 1.4335-2
 H, KJ/KG         25369.6  22940.3  23110.1  23280.3  23451.0  23622.2  23793.9  23966.1
 U, KJ/KG         17363.8  15514.9  15643.3  15772.2  15901.5  16031.3  16161.6  16292.4
 G, KJ/KG       -155083.5-141443.9-142357.6-143272.2-144187.8-145104.4-146021.8-146940.2
 S, KJ/(KG)(K)    93.0171  91.3245  91.4186  91.5124  91.6059  91.6992  91.7923  91.8851

 M, (1/n)           2.015    2.016    2.016    2.015    2.015    2.015    2.015    2.015
 (dLV/dLP)t      -1.00027 -1.00009 -1.00009 -1.00010 -1.00011 -1.00012 -1.00013 -1.00014
 (dLV/dLT)p        1.0075   1.0026   1.0028   1.0030   1.0033   1.0035   1.0038   1.0041
 Cp, KJ/(KG)(K)   17.7691  16.9600  17.0035  17.0484  17.0948  17.1428  17.1925  17.2439
 GAMMAs            1.3080   1.3235   1.3225   1.3216   1.3206   1.3197   1.3187   1.3176
 SON VEL,M/SEC     3236.0   3134.8   3142.5   3150.0   3157.6   3165.0   3172.4   3179.8

 TRANSPORT PROPERTIES (GASES ONLY)
   CONDUCTIVITY IN UNITS OF MILLIWATTS/(CM)(K)

 VISC,MILLIPOISE  0.32788  0.31044  0.31169  0.31293  0.31418  0.31542  0.31667  0.31791

  WITH EQUILIBRIUM REACTIONS

 Cp, KJ/(KG)(K)   17.7691  16.9600  17.0035  17.0484  17.0948  17.1428  17.1925  17.2439
 CONDUCTIVITY      8.6459   7.6140   7.6730   7.7336   7.7957   7.8595   7.9251   7.9924
 PRANDTL NUMBER    0.6739   0.6915   0.6907   0.6899   0.6889   0.6880   0.6870   0.6859

  WITH FROZEN REACTIONS

 Cp, KJ/(KG)(K)   16.8990  16.6381  16.6572  16.6763  16.6953  16.7142  16.7331  16.7518
 CONDUCTIVITY      7.8737   7.3455   7.3829   7.4204   7.4579   7.4955   7.5331   7.5707
 PRANDTL NUMBER    0.7037   0.7032   0.7032   0.7033   0.7033   0.7034   0.7034   0.7035

 MOLE FRACTIONS

 *H               0.00107  0.00034  0.00037  0.00040  0.00044  0.00047  0.00051  0.00056
 *H2              0.99893  0.99966  0.99963  0.99960  0.99956  0.99953  0.99949  0.99944

  * THERMODYNAMIC PROPERTIES FITTED TO 20000.K

 NOTE. WEIGHT FRACTION OF FUEL IN TOTAL FUELS AND OF OXIDANT IN TOTAL OXIDANTS









               THERMODYNAMIC EQUILIBRIUM PROPERTIES AT ASSIGNED

                           TEMPERATURE AND PRESSURE

 CASE =                

             REACTANT                    WT FRACTION      ENERGY      TEMP
                                          (SEE NOTE)     KJ/KG-MOL      K  
             H2                           1.0000000         0.000      0.000

 O/F=    0.00000  %FUEL=100.000000  R,EQ.RATIO= 0.000000  PHI,EQ.RATIO= 0.000000

 THERMODYNAMIC PROPERTIES

 P, BAR            1.1000   1.1000   1.1000   1.1000   1.1000   1.1000   1.1000   1.1000
 T, K             1870.00  1880.00  1890.00  1900.00  1910.00  1920.00  1930.00  1940.00
 RHO, KG/CU M    1.4258-2 1.4181-2 1.4106-2 1.4031-2 1.3958-2 1.3884-2 1.3812-2 1.3740-2
 H, KJ/KG         24138.8  24312.0  24485.8  24660.2  24835.2  25010.8  25187.1  25364.0
 U, KJ/KG         16423.6  16555.4  16687.8  16820.7  16954.2  17088.3  17223.0  17358.4
 G, KJ/KG       -147859.5-148779.8-149700.9-150623.0-151546.0-152469.9-153394.8-154320.5
 S, KJ/(KG)(K)    91.9777  92.0701  92.1623  92.2543  92.3462  92.4379  92.5295  92.6209

 M, (1/n)           2.015    2.015    2.015    2.015    2.015    2.015    2.015    2.015
 (dLV/dLP)t      -1.00015 -1.00016 -1.00018 -1.00019 -1.00020 -1.00022 -1.00024 -1.00025
 (dLV/dLT)p        1.0044   1.0047   1.0051   1.0054   1.0058   1.0062   1.0067   1.0072
 Cp, KJ/(KG)(K)   17.2971  17.3523  17.4094  17.4687  17.5301  17.5938  17.6599  17.7285
 GAMMAs            1.3166   1.3155   1.3144   1.3133   1.3122   1.3110   1.3099   1.3087
 SON VEL,M/SEC     3187.1   3194.4   3201.6   3208.7   3215.8   3222.9   3229.8   3236.8

 TRANSPORT PROPERTIES (GASES ONLY)
   CONDUCTIVITY IN UNITS OF MILLIWATTS/(CM)(K)

 VISC,MILLIPOISE  0.31916  0.32040  0.32165  0.32289  0.32413  0.32538  0.32662  0.32787

  WITH EQUILIBRIUM REACTIONS

 Cp, KJ/(KG)(K)   17.2971  17.3523  17.4094  17.4687  17.5301  17.5938  17.6599  17.7285
 CONDUCTIVITY      8.0617   8.1331   8.2066   8.2823   8.3603   8.4408   8.5239   8.6096
 PRANDTL NUMBER    0.6848   0.6836   0.6823   0.6810   0.6797   0.6782   0.6767   0.6751

  WITH FROZEN REACTIONS

 Cp, KJ/(KG)(K)   16.7705  16.7891  16.8076  16.8260  16.8443  16.8626  16.8808  16.8989
 CONDUCTIVITY      7.6084   7.6461   7.6839   7.7217   7.7595   7.7974   7.8353   7.8733
 PRANDTL NUMBER    0.7035   0.7035   0.7036   0.7036   0.7036   0.7037   0.7037   0.7037

 MOLE FRACTIONS

 *H               0.00060  0.00065  0.00070  0.00076  0.00082  0.00088  0.00095  0.00102
 *H2              0.99940  0.99935  0.99930  0.99924  0.99918  0.99912  0.99905  0.99898

  * THERMODYNAMIC PROPERTIES FITTED TO 20000.K

 NOTE. WEIGHT FRACTION OF FUEL IN TOTAL FUELS AND OF OXIDANT IN TOTAL OXIDANTS









               THERMODYNAMIC EQUILIBRIUM PROPERTIES AT ASSIGNED

                           TEMPERATURE AND PRESSURE

 CASE =                

             REACTANT                    WT FRACTION      ENERGY      TEMP
                                          (SEE NOTE)     KJ/KG-MOL      K  
             H2                           1.0000000         0.000      0.000

 O/F=    0.00000  %FUEL=100.000000  R,EQ.RATIO= 0.000000  PHI,EQ.RATIO= 0.000000

 THERMODYNAMIC PROPERTIES

 P, BAR            1.2000   1.2000   1.2000   1.2000   1.2000   1.2000   1.2000   1.2000
 T, K             1800.00  1810.00  1820.00  1830.00  1840.00  1850.00  1860.00  1870.00
 RHO, KG/CU M    1.6161-2 1.6071-2 1.5983-2 1.5895-2 1.5809-2 1.5723-2 1.5638-2 1.5554-2
 H, KJ/KG         22938.6  23108.3  23278.4  23448.9  23620.0  23791.4  23963.4  24135.9
 U, KJ/KG         15513.3  15641.6  15770.3  15899.5  16029.1  16159.2  16289.8  16420.9
 G, KJ/KG       -140797.8-141707.9-142619.0-143530.9-144443.9-145357.7-146272.5-147188.2
 S, KJ/(KG)(K)    90.9647  91.0587  91.1524  91.2458  91.3390  91.4320  91.5247  91.6172

 M, (1/n)           2.016    2.016    2.015    2.015    2.015    2.015    2.015    2.015
 (dLV/dLP)t      -1.00008 -1.00009 -1.00010 -1.00010 -1.00011 -1.00012 -1.00013 -1.00014
 (dLV/dLT)p        1.0025   1.0027   1.0029   1.0031   1.0034   1.0036   1.0039   1.0042
 Cp, KJ/(KG)(K)   16.9463  16.9887  17.0325  17.0777  17.1245  17.1729  17.2229  17.2746
 GAMMAs            1.3237   1.3228   1.3219   1.3209   1.3200   1.3190   1.3180   1.3170
 SON VEL,M/SEC     3135.1   3142.8   3150.4   3157.9   3165.4   3172.8   3180.2   3187.6

 TRANSPORT PROPERTIES (GASES ONLY)
   CONDUCTIVITY IN UNITS OF MILLIWATTS/(CM)(K)

 VISC,MILLIPOISE  0.31044  0.31169  0.31293  0.31418  0.31542  0.31667  0.31791  0.31915

  WITH EQUILIBRIUM REACTIONS

 Cp, KJ/(KG)(K)   16.9463  16.9887  17.0325  17.0777  17.1245  17.1729  17.2229  17.2746
 CONDUCTIVITY      7.6025   7.6606   7.7201   7.7812   7.8439   7.9082   7.9743   8.0423
 PRANDTL NUMBER    0.6920   0.6912   0.6904   0.6895   0.6886   0.6876   0.6866   0.6855

  WITH FROZEN REACTIONS

 Cp, KJ/(KG)(K)   16.6380  16.6572  16.6763  16.6953  16.7142  16.7330  16.7518  16.7704
 CONDUCTIVITY      7.3454   7.3828   7.4203   7.4578   7.4954   7.5329   7.5706   7.6082
 PRANDTL NUMBER    0.7032   0.7032   0.7033   0.7033   0.7034   0.7034   0.7035   0.7035

 MOLE FRACTIONS

 *H               0.00033  0.00036  0.00039  0.00042  0.00045  0.00049  0.00053  0.00058
 *H2              0.99967  0.99964  0.99961  0.99958  0.99955  0.99951  0.99947  0.99942

  * THERMODYNAMIC PROPERTIES FITTED TO 20000.K

 NOTE. WEIGHT FRACTION OF FUEL IN TOTAL FUELS AND OF OXIDANT IN TOTAL OXIDANTS









               THERMODYNAMIC EQUILIBRIUM PROPERTIES AT ASSIGNED

                           TEMPERATURE AND PRESSURE

 CASE =                

             REACTANT                    WT FRACTION      ENERGY      TEMP
                                          (SEE NOTE)     KJ/KG-MOL      K  
             H2                           1.0000000         0.000      0.000

 O/F=    0.00000  %FUEL=100.000000  R,EQ.RATIO= 0.000000  PHI,EQ.RATIO= 0.000000

 THERMODYNAMIC PROPERTIES

 P, BAR            1.2000   1.2000   1.2000   1.2000   1.2000   1.2000   1.2000   1.3200
 T, K             1880.00  1890.00  1900.00  1910.00  1920.00  1930.00  1940.00  1800.00
 RHO, KG/CU M    1.5471-2 1.5389-2 1.5307-2 1.5227-2 1.5147-2 1.5068-2 1.4990-2 1.7777-2
 H, KJ/KG         24308.9  24482.5  24656.6  24831.3  25006.6  25182.6  25359.2  22936.9
 U, KJ/KG         16552.4  16684.5  16817.2  16950.4  17084.2  17218.7  17353.7  15511.6
 G, KJ/KG       -148104.9-149022.4-149940.9-150860.3-151780.6-152701.8-153623.9-140090.1
 S, KJ/(KG)(K)    91.7095  91.8015  91.8934  91.9851  92.0767  92.1681  92.2593  90.5706

 M, (1/n)           2.015    2.015    2.015    2.015    2.015    2.015    2.015    2.016
 (dLV/dLP)t      -1.00016 -1.00017 -1.00018 -1.00020 -1.00021 -1.00023 -1.00024 -1.00008
 (dLV/dLT)p        1.0045   1.0048   1.0052   1.0056   1.0060   1.0064   1.0068   1.0024
 Cp, KJ/(KG)(K)   17.3282  17.3837  17.4412  17.5008  17.5626  17.6267  17.6931  16.9319
 GAMMAs            1.3160   1.3149   1.3138   1.3127   1.3116   1.3104   1.3092   1.3240
 SON VEL,M/SEC     3194.9   3202.1   3209.3   3216.4   3223.5   3230.5   3237.4   3135.4

 TRANSPORT PROPERTIES (GASES ONLY)
   CONDUCTIVITY IN UNITS OF MILLIWATTS/(CM)(K)

 VISC,MILLIPOISE  0.32040  0.32164  0.32288  0.32413  0.32537  0.32662  0.32786  0.31044

  WITH EQUILIBRIUM REACTIONS

 Cp, KJ/(KG)(K)   17.3282  17.3837  17.4412  17.5008  17.5626  17.6267  17.6931  16.9319
 CONDUCTIVITY      8.1122   8.1841   8.2582   8.3345   8.4132   8.4943   8.5780   7.5904
 PRANDTL NUMBER    0.6844   0.6832   0.6819   0.6806   0.6792   0.6778   0.6763   0.6925

  WITH FROZEN REACTIONS

 Cp, KJ/(KG)(K)   16.7890  16.8075  16.8259  16.8443  16.8625  16.8807  16.8988  16.6380
 CONDUCTIVITY      7.6459   7.6837   7.7214   7.7593   7.7971   7.8350   7.8730   7.3453
 PRANDTL NUMBER    0.7035   0.7036   0.7036   0.7036   0.7037   0.7037   0.7037   0.7032

 MOLE FRACTIONS

 *H               0.00062  0.00067  0.00073  0.00078  0.00084  0.00091  0.00097  0.00031
 *H2              0.99938  0.99933  0.99927  0.99922  0.99916  0.99909  0.99903  0.99969

  * THERMODYNAMIC PROPERTIES FITTED TO 20000.K

 NOTE. WEIGHT FRACTION OF FUEL IN TOTAL FUELS AND OF OXIDANT IN TOTAL OXIDANTS









               THERMODYNAMIC EQUILIBRIUM PROPERTIES AT ASSIGNED

                           TEMPERATURE AND PRESSURE

 CASE =                

             REACTANT                    WT FRACTION      ENERGY      TEMP
                                          (SEE NOTE)     KJ/KG-MOL      K  
             H2                           1.0000000         0.000      0.000

 O/F=    0.00000  %FUEL=100.000000  R,EQ.RATIO= 0.000000  PHI,EQ.RATIO= 0.000000

 THERMODYNAMIC PROPERTIES

 P, BAR            1.3200   1.3200   1.3200   1.3200   1.3200   1.3200   1.3200   1.3200
 T, K             1810.00  1820.00  1830.00  1840.00  1850.00  1860.00  1870.00  1880.00
 RHO, KG/CU M    1.7679-2 1.7581-2 1.7485-2 1.7390-2 1.7295-2 1.7202-2 1.7110-2 1.7018-2
 H, KJ/KG         23106.4  23276.4  23446.8  23617.6  23788.9  23960.6  24132.9  24305.7
 U, KJ/KG         15639.8  15768.4  15897.4  16026.8  16156.7  16287.1  16417.9  16549.3
 G, KJ/KG       -140996.3-141903.4-142811.4-143720.4-144630.3-145541.1-146452.9-147365.6
 S, KJ/(KG)(K)    90.6645  90.7581  90.8515  90.9446  91.0374  91.1300  91.2223  91.3145

 M, (1/n)           2.016    2.016    2.015    2.015    2.015    2.015    2.015    2.015
 (dLV/dLP)t      -1.00008 -1.00009 -1.00010 -1.00011 -1.00012 -1.00013 -1.00014 -1.00015
 (dLV/dLT)p        1.0025   1.0028   1.0030   1.0032   1.0035   1.0037   1.0040   1.0043
 Cp, KJ/(KG)(K)   16.9732  17.0159  17.0599  17.1054  17.1523  17.2009  17.2511  17.3031
 GAMMAs            1.3231   1.3222   1.3213   1.3203   1.3194   1.3184   1.3174   1.3164
 SON VEL,M/SEC     3143.1   3150.7   3158.3   3165.8   3173.3   3180.7   3188.1   3195.4

 TRANSPORT PROPERTIES (GASES ONLY)
   CONDUCTIVITY IN UNITS OF MILLIWATTS/(CM)(K)

 VISC,MILLIPOISE  0.31168  0.31293  0.31417  0.31542  0.31666  0.31791  0.31915  0.32039

  WITH EQUILIBRIUM REACTIONS

 Cp, KJ/(KG)(K)   16.9732  17.0159  17.0599  17.1054  17.1523  17.2009  17.2511  17.3031
 CONDUCTIVITY      7.6476   7.7061   7.7660   7.8275   7.8906   7.9554   8.0219   8.0903
 PRANDTL NUMBER    0.6918   0.6910   0.6902   0.6893   0.6883   0.6874   0.6863   0.6852

  WITH FROZEN REACTIONS

 Cp, KJ/(KG)(K)   16.6572  16.6763  16.6952  16.7142  16.7330  16.7517  16.7704  16.7890
 CONDUCTIVITY      7.3827   7.4202   7.4577   7.4952   7.5328   7.5704   7.6080   7.6457
 PRANDTL NUMBER    0.7032   0.7033   0.7033   0.7034   0.7034   0.7035   0.7035   0.7035

 MOLE FRACTIONS

 *H               0.00034  0.00037  0.00040  0.00043  0.00047  0.00051  0.00055  0.00059
 *H2              0.99966  0.99963  0.99960  0.99957  0.99953  0.99949  0.99945  0.99941

  * THERMODYNAMIC PROPERTIES FITTED TO 20000.K

 NOTE. WEIGHT FRACTION OF FUEL IN TOTAL FUELS AND OF OXIDANT IN TOTAL OXIDANTS









               THERMODYNAMIC EQUILIBRIUM PROPERTIES AT ASSIGNED

                           TEMPERATURE AND PRESSURE

 CASE =                

             REACTANT                    WT FRACTION      ENERGY      TEMP
                                          (SEE NOTE)     KJ/KG-MOL      K  
             H2                           1.0000000         0.000      0.000

 O/F=    0.00000  %FUEL=100.000000  R,EQ.RATIO= 0.000000  PHI,EQ.RATIO= 0.000000

 THERMODYNAMIC PROPERTIES

 P, BAR            1.3200   1.3200   1.3200   1.3200   1.3200   1.3200   1.4800   1.4800
 T, K             1890.00  1900.00  1910.00  1920.00  1930.00  1940.00  1800.00  1810.00
 RHO, KG/CU M    1.6928-2 1.6838-2 1.6750-2 1.6662-2 1.6575-2 1.6489-2 1.9932-2 1.9822-2
 H, KJ/KG         24479.0  24652.8  24827.2  25002.2  25177.8  25354.1  22935.0  23104.3
 U, KJ/KG         16681.1  16813.5  16946.5  17080.0  17214.1  17348.8  15509.8  15637.8
 G, KJ/KG       -148279.2-149193.7-150109.2-151025.5-151942.8-152861.0-139240.6-140142.0
 S, KJ/(KG)(K)    91.4064  91.4982  91.5897  91.6811  91.7723  91.8634  90.0975  90.1913

 M, (1/n)           2.015    2.015    2.015    2.015    2.015    2.015    2.016    2.016
 (dLV/dLP)t      -1.00016 -1.00017 -1.00019 -1.00020 -1.00022 -1.00023 -1.00007 -1.00008
 (dLV/dLT)p        1.0046   1.0050   1.0053   1.0057   1.0061   1.0065   1.0022   1.0024
 Cp, KJ/(KG)(K)   17.3569  17.4125  17.4702  17.5300  17.5919  17.6561  16.9155  16.9556
 GAMMAs            1.3154   1.3143   1.3132   1.3121   1.3110   1.3098   1.3243   1.3234
 SON VEL,M/SEC     3202.6   3209.8   3217.0   3224.1   3231.1   3238.1   3135.8   3143.5

 TRANSPORT PROPERTIES (GASES ONLY)
   CONDUCTIVITY IN UNITS OF MILLIWATTS/(CM)(K)

 VISC,MILLIPOISE  0.32164  0.32288  0.32412  0.32537  0.32661  0.32785  0.31044  0.31168

  WITH EQUILIBRIUM REACTIONS

 Cp, KJ/(KG)(K)   17.3569  17.4125  17.4702  17.5300  17.5919  17.6561  16.9155  16.9556
 CONDUCTIVITY      8.1606   8.2330   8.3075   8.3842   8.4633   8.5449   7.5767   7.6327
 PRANDTL NUMBER    0.6841   0.6829   0.6816   0.6803   0.6789   0.6774   0.6931   0.6924

  WITH FROZEN REACTIONS

 Cp, KJ/(KG)(K)   16.8075  16.8259  16.8442  16.8625  16.8806  16.8987  16.6380  16.6571
 CONDUCTIVITY      7.6834   7.7212   7.7590   7.7968   7.8347   7.8727   7.3452   7.3826
 PRANDTL NUMBER    0.7036   0.7036   0.7036   0.7037   0.7037   0.7037   0.7032   0.7032

 MOLE FRACTIONS

 *H               0.00064  0.00069  0.00075  0.00080  0.00086  0.00093  0.00029  0.00032
 *H2              0.99936  0.99931  0.99925  0.99920  0.99914  0.99907  0.99971  0.99968

  * THERMODYNAMIC PROPERTIES FITTED TO 20000.K

 NOTE. WEIGHT FRACTION OF FUEL IN TOTAL FUELS AND OF OXIDANT IN TOTAL OXIDANTS









               THERMODYNAMIC EQUILIBRIUM PROPERTIES AT ASSIGNED

                           TEMPERATURE AND PRESSURE

 CASE =                

             REACTANT                    WT FRACTION      ENERGY      TEMP
                                          (SEE NOTE)     KJ/KG-MOL      K  
             H2                           1.0000000         0.000      0.000

 O/F=    0.00000  %FUEL=100.000000  R,EQ.RATIO= 0.000000  PHI,EQ.RATIO= 0.000000

 THERMODYNAMIC PROPERTIES

 P, BAR            1.4800   1.4800   1.4800   1.4800   1.4800   1.4800   1.4800   1.4800
 T, K             1820.00  1830.00  1840.00  1850.00  1860.00  1870.00  1880.00  1890.00
 RHO, KG/CU M    1.9713-2 1.9605-2 1.9498-2 1.9392-2 1.9287-2 1.9184-2 1.9081-2 1.8980-2
 H, KJ/KG         23274.1  23444.3  23614.9  23785.9  23957.5  24129.5  24301.9  24475.0
 U, KJ/KG         15766.2  15895.0  16024.2  16153.9  16284.0  16414.6  16545.7  16677.3
 G, KJ/KG       -141044.4-141947.7-142851.9-143757.1-144663.2-145570.2-146478.2-147387.0
 S, KJ/(KG)(K)    90.2849  90.3781  90.4711  90.5638  90.6563  90.7485  90.8405  90.9323

 M, (1/n)           2.016    2.015    2.015    2.015    2.015    2.015    2.015    2.015
 (dLV/dLP)t      -1.00009 -1.00009 -1.00010 -1.00011 -1.00012 -1.00013 -1.00014 -1.00015
 (dLV/dLT)p        1.0026   1.0028   1.0030   1.0033   1.0035   1.0038   1.0041   1.0044
 Cp, KJ/(KG)(K)   16.9970  17.0396  17.0836  17.1290  17.1759  17.2243  17.2744  17.3262
 GAMMAs            1.3225   1.3216   1.3207   1.3198   1.3188   1.3179   1.3169   1.3159
 SON VEL,M/SEC     3151.1   3158.7   3166.3   3173.8   3181.2   3188.6   3196.0   3203.3

 TRANSPORT PROPERTIES (GASES ONLY)
   CONDUCTIVITY IN UNITS OF MILLIWATTS/(CM)(K)

 VISC,MILLIPOISE  0.31293  0.31417  0.31541  0.31666  0.31790  0.31914  0.32039  0.32163

  WITH EQUILIBRIUM REACTIONS

 Cp, KJ/(KG)(K)   16.9970  17.0396  17.0836  17.1290  17.1759  17.2243  17.2744  17.3262
 CONDUCTIVITY      7.6900   7.7487   7.8089   7.8705   7.9338   7.9987   8.0653   8.1338
 PRANDTL NUMBER    0.6916   0.6909   0.6900   0.6892   0.6882   0.6872   0.6862   0.6851

  WITH FROZEN REACTIONS

 Cp, KJ/(KG)(K)   16.6762  16.6952  16.7141  16.7329  16.7517  16.7703  16.7889  16.8074
 CONDUCTIVITY      7.4200   7.4575   7.4950   7.5326   7.5702   7.6078   7.6455   7.6832
 PRANDTL NUMBER    0.7033   0.7033   0.7034   0.7034   0.7035   0.7035   0.7035   0.7036

 MOLE FRACTIONS

 *H               0.00035  0.00038  0.00041  0.00044  0.00048  0.00052  0.00056  0.00061
 *H2              0.99965  0.99962  0.99959  0.99956  0.99952  0.99948  0.99944  0.99939

  * THERMODYNAMIC PROPERTIES FITTED TO 20000.K

 NOTE. WEIGHT FRACTION OF FUEL IN TOTAL FUELS AND OF OXIDANT IN TOTAL OXIDANTS









               THERMODYNAMIC EQUILIBRIUM PROPERTIES AT ASSIGNED

                           TEMPERATURE AND PRESSURE

 CASE =                

             REACTANT                    WT FRACTION      ENERGY      TEMP
                                          (SEE NOTE)     KJ/KG-MOL      K  
             H2                           1.0000000         0.000      0.000

 O/F=    0.00000  %FUEL=100.000000  R,EQ.RATIO= 0.000000  PHI,EQ.RATIO= 0.000000

 THERMODYNAMIC PROPERTIES

 P, BAR            1.4800   1.4800   1.4800   1.4800   1.4800   1.6500   1.6500   1.6500
 T, K             1900.00  1910.00  1920.00  1930.00  1940.00  1800.00  1810.00  1820.00
 RHO, KG/CU M    1.8880-2 1.8780-2 1.8682-2 1.8585-2 1.8488-2 2.2222-2 2.2099-2 2.1977-2
 H, KJ/KG         24648.5  24822.6  24997.2  25172.4  25348.2  22933.2  23102.4  23272.0
 U, KJ/KG         16809.4  16942.0  17075.1  17208.9  17343.2  15508.1  15635.9  15764.2
 G, KJ/KG       -148296.8-149207.5-150119.1-151031.7-151945.1-138433.2-139330.1-140228.0
 S, KJ/(KG)(K)    91.0238  91.1152  91.2064  91.2974  91.3883  89.6480  89.7417  89.8352

 M, (1/n)           2.015    2.015    2.015    2.015    2.015    2.016    2.016    2.016
 (dLV/dLP)t      -1.00016 -1.00018 -1.00019 -1.00020 -1.00022 -1.00007 -1.00008 -1.00008
 (dLV/dLT)p        1.0047   1.0050   1.0054   1.0058   1.0062   1.0021   1.0023   1.0025
 Cp, KJ/(KG)(K)   17.3799  17.4353  17.4928  17.5523  17.6139  16.9008  16.9398  16.9800
 GAMMAs            1.3149   1.3138   1.3127   1.3116   1.3105   1.3246   1.3237   1.3229
 SON VEL,M/SEC     3210.5   3217.7   3224.8   3231.9   3238.9   3136.1   3143.8   3151.5

 TRANSPORT PROPERTIES (GASES ONLY)
   CONDUCTIVITY IN UNITS OF MILLIWATTS/(CM)(K)

 VISC,MILLIPOISE  0.32287  0.32412  0.32536  0.32660  0.32784  0.31043  0.31168  0.31292

  WITH EQUILIBRIUM REACTIONS

 Cp, KJ/(KG)(K)   17.3799  17.4353  17.4928  17.5523  17.6139  16.9008  16.9398  16.9800
 CONDUCTIVITY      8.2043   8.2767   8.3513   8.4281   8.5072   7.5643   7.6194   7.6756
 PRANDTL NUMBER    0.6840   0.6828   0.6815   0.6802   0.6788   0.6936   0.6929   0.6922

  WITH FROZEN REACTIONS

 Cp, KJ/(KG)(K)   16.8258  16.8441  16.8624  16.8805  16.8986  16.6379  16.6571  16.6762
 CONDUCTIVITY      7.7209   7.7587   7.7965   7.8344   7.8723   7.3451   7.3825   7.4199
 PRANDTL NUMBER    0.7036   0.7037   0.7037   0.7037   0.7037   0.7032   0.7032   0.7033

 MOLE FRACTIONS

 *H               0.00065  0.00070  0.00076  0.00082  0.00088  0.00028  0.00030  0.00033
 *H2              0.99935  0.99930  0.99924  0.99918  0.99912  0.99972  0.99970  0.99967

  * THERMODYNAMIC PROPERTIES FITTED TO 20000.K

 NOTE. WEIGHT FRACTION OF FUEL IN TOTAL FUELS AND OF OXIDANT IN TOTAL OXIDANTS









               THERMODYNAMIC EQUILIBRIUM PROPERTIES AT ASSIGNED

                           TEMPERATURE AND PRESSURE

 CASE =                

             REACTANT                    WT FRACTION      ENERGY      TEMP
                                          (SEE NOTE)     KJ/KG-MOL      K  
             H2                           1.0000000         0.000      0.000

 O/F=    0.00000  %FUEL=100.000000  R,EQ.RATIO= 0.000000  PHI,EQ.RATIO= 0.000000

 THERMODYNAMIC PROPERTIES

 P, BAR            1.6500   1.6500   1.6500   1.6500   1.6500   1.6500   1.6500   1.6500
 T, K             1830.00  1840.00  1850.00  1860.00  1870.00  1880.00  1890.00  1900.00
 RHO, KG/CU M    2.1857-2 2.1738-2 2.1620-2 2.1503-2 2.1388-2 2.1273-2 2.1160-2 2.1049-2
 H, KJ/KG         23442.0  23612.4  23783.3  23954.6  24126.4  24298.6  24471.4  24644.6
 U, KJ/KG         15892.8  16021.9  16151.4  16281.3  16411.6  16542.5  16673.8  16805.6
 G, KJ/KG       -141126.8-142026.6-142927.3-143828.9-144731.4-145634.8-146539.2-147444.5
 S, KJ/(KG)(K)    89.9283  90.0212  90.1138  90.2062  90.2983  90.3901  90.4818  90.5732

 M, (1/n)           2.016    2.015    2.015    2.015    2.015    2.015    2.015    2.015
 (dLV/dLP)t      -1.00009 -1.00010 -1.00010 -1.00011 -1.00012 -1.00013 -1.00014 -1.00015
 (dLV/dLT)p        1.0027   1.0029   1.0031   1.0033   1.0036   1.0038   1.0041   1.0044
 Cp, KJ/(KG)(K)   17.0213  17.0640  17.1080  17.1534  17.2003  17.2487  17.2987  17.3505
 GAMMAs            1.3220   1.3211   1.3202   1.3192   1.3183   1.3173   1.3164   1.3154
 SON VEL,M/SEC     3159.1   3166.7   3174.2   3181.7   3189.1   3196.5   3203.8   3211.1

 TRANSPORT PROPERTIES (GASES ONLY)
   CONDUCTIVITY IN UNITS OF MILLIWATTS/(CM)(K)

 VISC,MILLIPOISE  0.31417  0.31541  0.31665  0.31790  0.31914  0.32038  0.32162  0.32287

  WITH EQUILIBRIUM REACTIONS

 Cp, KJ/(KG)(K)   17.0213  17.0640  17.1080  17.1534  17.2003  17.2487  17.2987  17.3505
 CONDUCTIVITY      7.7332   7.7921   7.8525   7.9144   7.9778   8.0429   8.1098   8.1784
 PRANDTL NUMBER    0.6915   0.6907   0.6899   0.6890   0.6881   0.6871   0.6860   0.6850

  WITH FROZEN REACTIONS

 Cp, KJ/(KG)(K)   16.6952  16.7141  16.7329  16.7516  16.7703  16.7889  16.8073  16.8257
 CONDUCTIVITY      7.4574   7.4949   7.5324   7.5700   7.6076   7.6453   7.6830   7.7207
 PRANDTL NUMBER    0.7033   0.7034   0.7034   0.7035   0.7035   0.7036   0.7036   0.7036

 MOLE FRACTIONS

 *H               0.00036  0.00039  0.00042  0.00045  0.00049  0.00053  0.00057  0.00062
 *H2              0.99964  0.99961  0.99958  0.99955  0.99951  0.99947  0.99943  0.99938

  * THERMODYNAMIC PROPERTIES FITTED TO 20000.K

 NOTE. WEIGHT FRACTION OF FUEL IN TOTAL FUELS AND OF OXIDANT IN TOTAL OXIDANTS









               THERMODYNAMIC EQUILIBRIUM PROPERTIES AT ASSIGNED

                           TEMPERATURE AND PRESSURE

 CASE =                

             REACTANT                    WT FRACTION      ENERGY      TEMP
                                          (SEE NOTE)     KJ/KG-MOL      K  
             H2                           1.0000000         0.000      0.000

 O/F=    0.00000  %FUEL=100.000000  R,EQ.RATIO= 0.000000  PHI,EQ.RATIO= 0.000000

 THERMODYNAMIC PROPERTIES

 P, BAR            1.6500   1.6500   1.6500   1.6500   1.8000   1.8000   1.8000   1.8000
 T, K             1910.00  1920.00  1930.00  1940.00  1800.00  1810.00  1820.00  1830.00
 RHO, KG/CU M    2.0938-2 2.0828-2 2.0720-2 2.0612-2 2.4242-2 2.4108-2 2.3975-2 2.3844-2
 H, KJ/KG         24818.4  24992.7  25167.6  25343.0  22931.9  23101.0  23270.4  23440.3
 U, KJ/KG         16937.9  17070.8  17204.2  17338.2  15506.8  15634.5  15762.6  15891.2
 G, KJ/KG       -148350.7-149257.8-150165.8-151074.7-137787.1-138680.5-139574.8-140470.0
 S, KJ/(KG)(K)    90.6644  90.7554  90.8463  90.9370  89.2883  89.3820  89.4754  89.5685

 M, (1/n)           2.015    2.015    2.015    2.015    2.016    2.016    2.016    2.016
 (dLV/dLP)t      -1.00017 -1.00018 -1.00019 -1.00021 -1.00007 -1.00007 -1.00008 -1.00009
 (dLV/dLT)p        1.0048   1.0051   1.0055   1.0058   1.0020   1.0022   1.0024   1.0025
 Cp, KJ/(KG)(K)   17.4040  17.4593  17.5166  17.5760  16.8896  16.9277  16.9670  17.0074
 GAMMAs            1.3143   1.3133   1.3122   1.3111   1.3248   1.3239   1.3231   1.3222
 SON VEL,M/SEC     3218.3   3225.5   3232.6   3239.7   3136.3   3144.1   3151.8   3159.4

 TRANSPORT PROPERTIES (GASES ONLY)
   CONDUCTIVITY IN UNITS OF MILLIWATTS/(CM)(K)

 VISC,MILLIPOISE  0.32411  0.32535  0.32659  0.32784  0.31043  0.31168  0.31292  0.31416

  WITH EQUILIBRIUM REACTIONS

 Cp, KJ/(KG)(K)   17.4040  17.4593  17.5166  17.5760  16.8896  16.9277  16.9670  17.0074
 CONDUCTIVITY      8.2490   8.3216   8.3963   8.4732   7.5549   7.6092   7.6647   7.7214
 PRANDTL NUMBER    0.6838   0.6826   0.6813   0.6800   0.6940   0.6934   0.6927   0.6920

  WITH FROZEN REACTIONS

 Cp, KJ/(KG)(K)   16.8441  16.8623  16.8804  16.8985  16.6379  16.6571  16.6761  16.6951
 CONDUCTIVITY      7.7584   7.7963   7.8341   7.8720   7.3450   7.3824   7.4198   7.4573
 PRANDTL NUMBER    0.7037   0.7037   0.7037   0.7038   0.7032   0.7032   0.7033   0.7033

 MOLE FRACTIONS

 *H               0.00067  0.00072  0.00077  0.00083  0.00027  0.00029  0.00032  0.00034
 *H2              0.99933  0.99928  0.99923  0.99917  0.99973  0.99971  0.99968  0.99966

  * THERMODYNAMIC PROPERTIES FITTED TO 20000.K

 NOTE. WEIGHT FRACTION OF FUEL IN TOTAL FUELS AND OF OXIDANT IN TOTAL OXIDANTS









               THERMODYNAMIC EQUILIBRIUM PROPERTIES AT ASSIGNED

                           TEMPERATURE AND PRESSURE

 CASE =                

             REACTANT                    WT FRACTION      ENERGY      TEMP
                                          (SEE NOTE)     KJ/KG-MOL      K  
             H2                           1.0000000         0.000      0.000

 O/F=    0.00000  %FUEL=100.000000  R,EQ.RATIO= 0.000000  PHI,EQ.RATIO= 0.000000

 THERMODYNAMIC PROPERTIES

 P, BAR            1.8000   1.8000   1.8000   1.8000   1.8000   1.8000   1.8000   1.8000
 T, K             1840.00  1850.00  1860.00  1870.00  1880.00  1890.00  1900.00  1910.00
 RHO, KG/CU M    2.3714-2 2.3585-2 2.3458-2 2.3332-2 2.3208-2 2.3084-2 2.2962-2 2.2842-2
 H, KJ/KG         23610.6  23781.3  23952.4  24124.0  24296.1  24468.6  24641.6  24815.2
 U, KJ/KG         16020.1  16149.4  16279.2  16409.4  16540.0  16671.2  16802.8  16934.9
 G, KJ/KG       -141366.1-142263.2-143161.2-144060.1-144960.0-145860.7-146762.4-147665.0
 S, KJ/(KG)(K)    89.6613  89.7538  89.8460  89.9380  90.0298  90.1213  90.2126  90.3037

 M, (1/n)           2.016    2.015    2.015    2.015    2.015    2.015    2.015    2.015
 (dLV/dLP)t      -1.00009 -1.00010 -1.00011 -1.00012 -1.00013 -1.00014 -1.00015 -1.00016
 (dLV/dLT)p        1.0027   1.0030   1.0032   1.0034   1.0037   1.0040   1.0042   1.0046
 Cp, KJ/(KG)(K)   17.0490  17.0920  17.1362  17.1819  17.2291  17.2778  17.3281  17.3801
 GAMMAs            1.3214   1.3205   1.3196   1.3186   1.3177   1.3167   1.3157   1.3147
 SON VEL,M/SEC     3167.0   3174.5   3182.0   3189.5   3196.9   3204.2   3211.5   3218.8

 TRANSPORT PROPERTIES (GASES ONLY)
   CONDUCTIVITY IN UNITS OF MILLIWATTS/(CM)(K)

 VISC,MILLIPOISE  0.31541  0.31665  0.31789  0.31914  0.32038  0.32162  0.32286  0.32410

  WITH EQUILIBRIUM REACTIONS

 Cp, KJ/(KG)(K)   17.0490  17.0920  17.1362  17.1819  17.2291  17.2778  17.3281  17.3801
 CONDUCTIVITY      7.7794   7.8387   7.8996   7.9619   8.0258   8.0914   8.1588   8.2280
 PRANDTL NUMBER    0.6912   0.6904   0.6896   0.6887   0.6878   0.6868   0.6857   0.6846

  WITH FROZEN REACTIONS

 Cp, KJ/(KG)(K)   16.7140  16.7329  16.7516  16.7702  16.7888  16.8073  16.8257  16.8440
 CONDUCTIVITY      7.4948   7.5323   7.5699   7.6075   7.6451   7.6828   7.7205   7.7582
 PRANDTL NUMBER    0.7034   0.7034   0.7035   0.7035   0.7036   0.7036   0.7036   0.7037

 MOLE FRACTIONS

 *H               0.00037  0.00040  0.00044  0.00047  0.00051  0.00055  0.00059  0.00064
 *H2              0.99963  0.99960  0.99956  0.99953  0.99949  0.99945  0.99941  0.99936

  * THERMODYNAMIC PROPERTIES FITTED TO 20000.K

 NOTE. WEIGHT FRACTION OF FUEL IN TOTAL FUELS AND OF OXIDANT IN TOTAL OXIDANTS









               THERMODYNAMIC EQUILIBRIUM PROPERTIES AT ASSIGNED

                           TEMPERATURE AND PRESSURE

 CASE =                

             REACTANT                    WT FRACTION      ENERGY      TEMP
                                          (SEE NOTE)     KJ/KG-MOL      K  
             H2                           1.0000000         0.000      0.000

 O/F=    0.00000  %FUEL=100.000000  R,EQ.RATIO= 0.000000  PHI,EQ.RATIO= 0.000000

 THERMODYNAMIC PROPERTIES

 P, BAR            1.8000   1.8000   1.8000   2.0000   2.0000   2.0000   2.0000   2.0000
 T, K             1920.00  1930.00  1940.00  1800.00  1810.00  1820.00  1830.00  1840.00
 RHO, KG/CU M    2.2722-2 2.2604-2 2.2487-2 2.6936-2 2.6787-2 2.6639-2 2.6493-2 2.6349-2
 H, KJ/KG         24989.2  25163.9  25339.0  22930.3  23099.3  23268.6  23438.3  23608.4
 U, KJ/KG         17067.5  17200.6  17334.3  15505.3  15632.9  15760.9  15889.3  16018.0
 G, KJ/KG       -148568.5-149472.9-150378.2-137004.8-137893.8-138783.7-139674.6-140566.4
 S, KJ/(KG)(K)    90.3946  90.4853  90.5759  88.8529  88.9465  89.0398  89.1328  89.2255

 M, (1/n)           2.015    2.015    2.015    2.016    2.016    2.016    2.016    2.016
 (dLV/dLP)t      -1.00017 -1.00019 -1.00020 -1.00006 -1.00007 -1.00007 -1.00008 -1.00009
 (dLV/dLT)p        1.0049   1.0052   1.0056   1.0019   1.0021   1.0022   1.0024   1.0026
 Cp, KJ/(KG)(K)   17.4339  17.4895  17.5470  16.8766  16.9138  16.9520  16.9914  17.0318
 GAMMAs            1.3137   1.3127   1.3116   1.3250   1.3242   1.3234   1.3225   1.3217
 SON VEL,M/SEC     3226.0   3233.1   3240.2   3136.6   3144.4   3152.1   3159.7   3167.3

 TRANSPORT PROPERTIES (GASES ONLY)
   CONDUCTIVITY IN UNITS OF MILLIWATTS/(CM)(K)

 VISC,MILLIPOISE  0.32535  0.32659  0.32783  0.31043  0.31167  0.31292  0.31416  0.31540

  WITH EQUILIBRIUM REACTIONS

 Cp, KJ/(KG)(K)   17.4339  17.4895  17.5470  16.8766  16.9138  16.9520  16.9914  17.0318
 CONDUCTIVITY      8.2991   8.3722   8.4474   7.5441   7.5974   7.6520   7.7077   7.7646
 PRANDTL NUMBER    0.6835   0.6822   0.6810   0.6945   0.6939   0.6932   0.6926   0.6918

  WITH FROZEN REACTIONS

 Cp, KJ/(KG)(K)   16.8622  16.8804  16.8985  16.6379  16.6570  16.6761  16.6951  16.7140
 CONDUCTIVITY      7.7960   7.8339   7.8717   7.3449   7.3823   7.4197   7.4572   7.4947
 PRANDTL NUMBER    0.7037   0.7037   0.7038   0.7032   0.7032   0.7033   0.7033   0.7034

 MOLE FRACTIONS

 *H               0.00069  0.00074  0.00080  0.00025  0.00028  0.00030  0.00032  0.00035
 *H2              0.99931  0.99926  0.99920  0.99975  0.99972  0.99970  0.99968  0.99965

  * THERMODYNAMIC PROPERTIES FITTED TO 20000.K

 NOTE. WEIGHT FRACTION OF FUEL IN TOTAL FUELS AND OF OXIDANT IN TOTAL OXIDANTS









               THERMODYNAMIC EQUILIBRIUM PROPERTIES AT ASSIGNED

                           TEMPERATURE AND PRESSURE

 CASE =                

             REACTANT                    WT FRACTION      ENERGY      TEMP
                                          (SEE NOTE)     KJ/KG-MOL      K  
             H2                           1.0000000         0.000      0.000

 O/F=    0.00000  %FUEL=100.000000  R,EQ.RATIO= 0.000000  PHI,EQ.RATIO= 0.000000

 THERMODYNAMIC PROPERTIES

 P, BAR            2.0000   2.0000   2.0000   2.0000   2.0000   2.0000   2.0000   2.0000
 T, K             1850.00  1860.00  1870.00  1880.00  1890.00  1900.00  1910.00  1920.00
 RHO, KG/CU M    2.6206-2 2.6065-2 2.5925-2 2.5787-2 2.5650-2 2.5514-2 2.5380-2 2.5247-2
 H, KJ/KG         23779.0  23949.9  24121.3  24293.1  24465.4  24638.2  24811.5  24985.3
 U, KJ/KG         16147.2  16276.8  16406.8  16537.2  16668.1  16799.5  16931.3  17063.6
 G, KJ/KG       -141459.1-142352.7-143247.3-144142.8-145039.2-145936.5-146834.7-147733.8
 S, KJ/(KG)(K)    89.3179  89.4100  89.5019  89.5936  89.6850  89.7762  89.8671  89.9579

 M, (1/n)           2.015    2.015    2.015    2.015    2.015    2.015    2.015    2.015
 (dLV/dLP)t      -1.00010 -1.00010 -1.00011 -1.00012 -1.00013 -1.00014 -1.00015 -1.00016
 (dLV/dLT)p        1.0028   1.0030   1.0033   1.0035   1.0038   1.0040   1.0043   1.0046
 Cp, KJ/(KG)(K)   17.0735  17.1165  17.1607  17.2064  17.2536  17.3022  17.3525  17.4045
 GAMMAs            1.3208   1.3199   1.3190   1.3181   1.3171   1.3162   1.3152   1.3142
 SON VEL,M/SEC     3174.9   3182.4   3189.9   3197.3   3204.7   3212.1   3219.3   3226.6

 TRANSPORT PROPERTIES (GASES ONLY)
   CONDUCTIVITY IN UNITS OF MILLIWATTS/(CM)(K)

 VISC,MILLIPOISE  0.31665  0.31789  0.31913  0.32037  0.32162  0.32286  0.32410  0.32534

  WITH EQUILIBRIUM REACTIONS

 Cp, KJ/(KG)(K)   17.0735  17.1165  17.1607  17.2064  17.2536  17.3022  17.3525  17.4045
 CONDUCTIVITY      7.8229   7.8825   7.9436   8.0061   8.0703   8.1361   8.2036   8.2730
 PRANDTL NUMBER    0.6911   0.6903   0.6894   0.6885   0.6876   0.6866   0.6855   0.6844

  WITH FROZEN REACTIONS

 Cp, KJ/(KG)(K)   16.7328  16.7515  16.7702  16.7888  16.8072  16.8256  16.8439  16.8622
 CONDUCTIVITY      7.5322   7.5697   7.6073   7.6449   7.6826   7.7203   7.7580   7.7958
 PRANDTL NUMBER    0.7034   0.7035   0.7035   0.7036   0.7036   0.7036   0.7037   0.7037

 MOLE FRACTIONS

 *H               0.00038  0.00041  0.00045  0.00048  0.00052  0.00056  0.00061  0.00065
 *H2              0.99962  0.99959  0.99955  0.99952  0.99948  0.99944  0.99939  0.99935

  * THERMODYNAMIC PROPERTIES FITTED TO 20000.K

 NOTE. WEIGHT FRACTION OF FUEL IN TOTAL FUELS AND OF OXIDANT IN TOTAL OXIDANTS









               THERMODYNAMIC EQUILIBRIUM PROPERTIES AT ASSIGNED

                           TEMPERATURE AND PRESSURE

 CASE =                

             REACTANT                    WT FRACTION      ENERGY      TEMP
                                          (SEE NOTE)     KJ/KG-MOL      K  
             H2                           1.0000000         0.000      0.000

 O/F=    0.00000  %FUEL=100.000000  R,EQ.RATIO= 0.000000  PHI,EQ.RATIO= 0.000000

 THERMODYNAMIC PROPERTIES

 P, BAR            2.0000   2.0000   2.2500   2.2500   2.2500   2.2500   2.2500   2.2500
 T, K             1930.00  1940.00  1800.00  1810.00  1820.00  1830.00  1840.00  1850.00
 RHO, KG/CU M    2.5116-2 2.4986-2 3.0303-2 3.0135-2 2.9969-2 2.9805-2 2.9643-2 2.9482-2
 H, KJ/KG         25159.6  25334.4  22928.7  23097.5  23266.7  23436.2  23606.2  23776.5
 U, KJ/KG         17196.5  17329.9  15503.7  15631.2  15759.0  15887.2  16015.8  16144.8
 G, KJ/KG       -148633.9-149534.8-136130.3-137014.4-137899.5-138785.5-139672.4-140560.2
 S, KJ/(KG)(K)    90.0484  90.1388  88.3661  88.4596  88.5528  88.6457  88.7383  88.8307

 M, (1/n)           2.015    2.015    2.016    2.016    2.016    2.016    2.016    2.016
 (dLV/dLP)t      -1.00018 -1.00019 -1.00006 -1.00006 -1.00007 -1.00008 -1.00008 -1.00009
 (dLV/dLT)p        1.0050   1.0053   1.0018   1.0020   1.0021   1.0023   1.0025   1.0026
 Cp, KJ/(KG)(K)   17.4582  17.5137  16.8630  16.8991  16.9362  16.9744  17.0136  17.0540
 GAMMAs            1.3132   1.3122   1.3253   1.3245   1.3237   1.3228   1.3220   1.3212
 SON VEL,M/SEC     3233.8   3240.9   3136.9   3144.7   3152.4   3160.1   3167.7   3175.3

 TRANSPORT PROPERTIES (GASES ONLY)
   CONDUCTIVITY IN UNITS OF MILLIWATTS/(CM)(K)

 VISC,MILLIPOISE  0.32658  0.32782  0.31043  0.31167  0.31291  0.31416  0.31540  0.31664

  WITH EQUILIBRIUM REACTIONS

 Cp, KJ/(KG)(K)   17.4582  17.5137  16.8630  16.8991  16.9362  16.9744  17.0136  17.0540
 CONDUCTIVITY      8.3443   8.4176   7.5326   7.5850   7.6386   7.6932   7.7491   7.8061
 PRANDTL NUMBER    0.6833   0.6821   0.6949   0.6944   0.6938   0.6932   0.6925   0.6918

  WITH FROZEN REACTIONS

 Cp, KJ/(KG)(K)   16.8803  16.8984  16.6379  16.6570  16.6761  16.6951  16.7140  16.7328
 CONDUCTIVITY      7.8336   7.8714   7.3448   7.3822   7.4196   7.4570   7.4945   7.5320
 PRANDTL NUMBER    0.7037   0.7038   0.7032   0.7032   0.7033   0.7033   0.7034   0.7034

 MOLE FRACTIONS

 *H               0.00070  0.00076  0.00024  0.00026  0.00028  0.00031  0.00033  0.00036
 *H2              0.99930  0.99924  0.99976  0.99974  0.99972  0.99969  0.99967  0.99964

  * THERMODYNAMIC PROPERTIES FITTED TO 20000.K

 NOTE. WEIGHT FRACTION OF FUEL IN TOTAL FUELS AND OF OXIDANT IN TOTAL OXIDANTS









               THERMODYNAMIC EQUILIBRIUM PROPERTIES AT ASSIGNED

                           TEMPERATURE AND PRESSURE

 CASE =                

             REACTANT                    WT FRACTION      ENERGY      TEMP
                                          (SEE NOTE)     KJ/KG-MOL      K  
             H2                           1.0000000         0.000      0.000

 O/F=    0.00000  %FUEL=100.000000  R,EQ.RATIO= 0.000000  PHI,EQ.RATIO= 0.000000

 THERMODYNAMIC PROPERTIES

 P, BAR            2.2500   2.2500   2.2500   2.2500   2.2500   2.2500   2.2500   2.2500
 T, K             1860.00  1870.00  1880.00  1890.00  1900.00  1910.00  1920.00  1930.00
 RHO, KG/CU M    2.9323-2 2.9166-2 2.9010-2 2.8856-2 2.8704-2 2.8553-2 2.8404-2 2.8256-2
 H, KJ/KG         23947.3  24118.4  24290.0  24462.1  24634.6  24807.6  24981.1  25155.1
 U, KJ/KG         16274.2  16404.0  16534.2  16664.9  16796.0  16927.5  17059.6  17192.1
 G, KJ/KG       -141449.0-142338.7-143229.3-144120.8-145013.2-145906.6-146800.8-147696.0
 S, KJ/(KG)(K)    88.9227  89.0145  89.1060  89.1973  89.2883  89.3791  89.4697  89.5601

 M, (1/n)           2.015    2.015    2.015    2.015    2.015    2.015    2.015    2.015
 (dLV/dLP)t      -1.00010 -1.00011 -1.00011 -1.00012 -1.00013 -1.00014 -1.00015 -1.00017
 (dLV/dLT)p        1.0028   1.0031   1.0033   1.0035   1.0038   1.0041   1.0044   1.0047
 Cp, KJ/(KG)(K)   17.0955  17.1384  17.1825  17.2280  17.2749  17.3234  17.3734  17.4250
 GAMMAs            1.3203   1.3194   1.3185   1.3176   1.3167   1.3157   1.3148   1.3138
 SON VEL,M/SEC     3182.9   3190.4   3197.8   3205.2   3212.6   3219.9   3227.2   3234.4

 TRANSPORT PROPERTIES (GASES ONLY)
   CONDUCTIVITY IN UNITS OF MILLIWATTS/(CM)(K)

 VISC,MILLIPOISE  0.31789  0.31913  0.32037  0.32161  0.32285  0.32409  0.32533  0.32657

  WITH EQUILIBRIUM REACTIONS

 Cp, KJ/(KG)(K)   17.0955  17.1384  17.1825  17.2280  17.2749  17.3234  17.3734  17.4250
 CONDUCTIVITY      7.8645   7.9242   7.9853   8.0479   8.1121   8.1779   8.2455   8.3148
 PRANDTL NUMBER    0.6910   0.6902   0.6894   0.6885   0.6875   0.6865   0.6855   0.6844

  WITH FROZEN REACTIONS

 Cp, KJ/(KG)(K)   16.7515  16.7701  16.7887  16.8072  16.8256  16.8439  16.8621  16.8802
 CONDUCTIVITY      7.5696   7.6071   7.6447   7.6824   7.7201   7.7578   7.7955   7.8333
 PRANDTL NUMBER    0.7035   0.7035   0.7036   0.7036   0.7036   0.7037   0.7037   0.7037

 MOLE FRACTIONS

 *H               0.00039  0.00042  0.00045  0.00049  0.00053  0.00057  0.00062  0.00066
 *H2              0.99961  0.99958  0.99955  0.99951  0.99947  0.99943  0.99938  0.99934

  * THERMODYNAMIC PROPERTIES FITTED TO 20000.K

 NOTE. WEIGHT FRACTION OF FUEL IN TOTAL FUELS AND OF OXIDANT IN TOTAL OXIDANTS









               THERMODYNAMIC EQUILIBRIUM PROPERTIES AT ASSIGNED

                           TEMPERATURE AND PRESSURE

 CASE =                

             REACTANT                    WT FRACTION      ENERGY      TEMP
                                          (SEE NOTE)     KJ/KG-MOL      K  
             H2                           1.0000000         0.000      0.000

 O/F=    0.00000  %FUEL=100.000000  R,EQ.RATIO= 0.000000  PHI,EQ.RATIO= 0.000000

 THERMODYNAMIC PROPERTIES

 P, BAR            2.2500
 T, K             1940.00
 RHO, KG/CU M    2.8110-2
 H, KJ/KG         25329.6
 U, KJ/KG         17325.2
 G, KJ/KG       -148592.0
 S, KJ/(KG)(K)    89.6503

 M, (1/n)           2.015
 (dLV/dLP)t      -1.00018
 (dLV/dLT)p        1.0050
 Cp, KJ/(KG)(K)   17.4784
 GAMMAs            1.3128
 SON VEL,M/SEC     3241.6

 TRANSPORT PROPERTIES (GASES ONLY)
   CONDUCTIVITY IN UNITS OF MILLIWATTS/(CM)(K)

 VISC,MILLIPOISE  0.32781

  WITH EQUILIBRIUM REACTIONS

 Cp, KJ/(KG)(K)   17.4784
 CONDUCTIVITY      8.3861
 PRANDTL NUMBER    0.6832

  WITH FROZEN REACTIONS

 Cp, KJ/(KG)(K)   16.8983
 CONDUCTIVITY      7.8711
 PRANDTL NUMBER    0.7038

 MOLE FRACTIONS

 *H               0.00071
 *H2              0.99929

  * THERMODYNAMIC PROPERTIES FITTED TO 20000.K

 NOTE. WEIGHT FRACTION OF FUEL IN TOTAL FUELS AND OF OXIDANT IN TOTAL OXIDANTS



  
