
 *******************************************************************************

         NASA-GLENN CHEMICAL EQUILIBRIUM PROGRAM CEA2, MAY 21, 2004
                   BY  BONNIE MCBRIDE AND SANFORD GORDON
      REFS: NASA RP-1311, PART I, 1994 AND NASA RP-1311, PART II, 1996

 *******************************************************************************



  prob tp
  p,bar= <PYPRES>
  t,k= <PYTEMP>
  
  WARNING!!  DID NOT RECOGNIZE p,bar           (INPUT)

  WARNING!!  DID NOT RECOGNIZE <PYPRES>        (INPUT)

  WARNING!!  DID NOT RECOGNIZE t,k             (INPUT)

  WARNING!!  DID NOT RECOGNIZE <PYTEMP>        (INPUT)

  reac
  fuel H2                wt%=100.0000
  oxid H2                wt%=100.0000
  
  output short
  
  output massf
  
