
 *******************************************************************************

         NASA-GLENN CHEMICAL EQUILIBRIUM PROGRAM CEA2, MAY 21, 2004
                   BY  BONNIE MCBRIDE AND SANFORD GORDON
      REFS: NASA RP-1311, PART I, 1994 AND NASA RP-1311, PART II, 1996

 *******************************************************************************



  prob tp ions
  p,bar= 100
  t,k= 150, 200, 300
  
  
  reac
  fuel H2                wt%=100.0000
  oxid H2                wt%=100.0000
  
  output short
  
  output massf
  
  output siunits
  
  output transport
  
 end

 THE TEMPERATURE=  0.1500E+03 IS OUT OF RANGE FOR POINT    1(EQLBRM)

 CALCULATIONS STOPPED AFTER POINT  1(EQLBRM)




               THERMODYNAMIC EQUILIBRIUM PROPERTIES AT ASSIGNED

                           TEMPERATURE AND PRESSURE

 CASE =                

             REACTANT                    WT FRACTION      ENERGY      TEMP
                                          (SEE NOTE)     KJ/KG-MOL      K  
 FUEL        H2                           1.0000000         0.000      0.000
 OXIDANT     H2                           1.0000000         0.000      0.000

 O/F=    1.00000  %FUEL= 50.000000  R,EQ.RATIO= 0.000000  PHI,EQ.RATIO=-1.000000

 THERMODYNAMIC PROPERTIES

 P, BAR            100.00
 T, K              150.00
 RHO, KG/CU M    1.6164 1
 H, KJ/KG        -2041.20
 U, KJ/KG        -2659.88
 G, KJ/KG        -7504.49
 S, KJ/(KG)(K)    36.4219

 M, (1/n)           2.016
 (dLV/dLP)t      -1.00000
 (dLV/dLT)p        1.0000
 Cp, KJ/(KG)(K)   12.9466
 GAMMAs            1.4675
 SON VEL,M/SEC      952.9

 TRANSPORT PROPERTIES (GASES ONLY)
   CONDUCTIVITY IN UNITS OF MILLIWATTS/(CM)(K)

 VISC,MILLIPOISE  0.00000

  WITH EQUILIBRIUM REACTIONS

 Cp, KJ/(KG)(K)    0.0000
 CONDUCTIVITY      0.0000
 PRANDTL NUMBER    0.0000

  WITH FROZEN REACTIONS

 Cp, KJ/(KG)(K)    0.0000
 CONDUCTIVITY      0.0000
 PRANDTL NUMBER    0.0000

 MASS FRACTIONS

 *H2              1.00000

  * THERMODYNAMIC PROPERTIES FITTED TO 20000.K

 NOTE. WEIGHT FRACTION OF FUEL IN TOTAL FUELS AND OF OXIDANT IN TOTAL OXIDANTS



  
