
 *******************************************************************************

         NASA-GLENN CHEMICAL EQUILIBRIUM PROGRAM CEA2, MAY 21, 2004
                   BY  BONNIE MCBRIDE AND SANFORD GORDON
      REFS: NASA RP-1311, PART I, 1994 AND NASA RP-1311, PART II, 1996

 *******************************************************************************



  prob tp
  p,bar= 1
  t,k= 200, 20, 30, 40, 50
  
  
  reac
  na H2(L)                wt%=100.0000
  output short
  output siunits
  output transport
  
 end

 THE TEMPERATURE=  0.2000E+02 IS OUT OF RANGE FOR POINT    2(EQLBRM)

 CALCULATIONS STOPPED AFTER POINT  2(EQLBRM)




               THERMODYNAMIC EQUILIBRIUM PROPERTIES AT ASSIGNED

                           TEMPERATURE AND PRESSURE

 CASE =                

             REACTANT                    WT FRACTION      ENERGY      TEMP
                                          (SEE NOTE)     KJ/KG-MOL      K  
             H2(L)                        1.0000000     -9012.000     20.270

 O/F=    0.00000  %FUEL=100.000000  R,EQ.RATIO= 0.000000  PHI,EQ.RATIO= 0.000000

 THERMODYNAMIC PROPERTIES

 P, BAR            1.0000   1.0000
 T, K              200.00    20.00
 RHO, KG/CU M    1.2123-1 1.2123 0
 H, KJ/KG        -1376.71 -6575.34
 U, KJ/KG        -2201.61 -6657.83
 G, KJ/KG        -13223.6 -5171.99
 S, KJ/(KG)(K)    59.2344 -70.1678

 M, (1/n)           2.016    2.016
 (dLV/dLP)t      -1.00000 -1.00000
 (dLV/dLT)p        1.0000   1.0000
 Cp, KJ/(KG)(K)   13.6144 288.2198
 GAMMAs            1.4346   1.0145
 SON VEL,M/SEC     1087.9    289.3

 TRANSPORT PROPERTIES (GASES ONLY)
   CONDUCTIVITY IN UNITS OF MILLIWATTS/(CM)(K)

 VISC,MILLIPOISE  0.06817  0.00000

  WITH EQUILIBRIUM REACTIONS

 Cp, KJ/(KG)(K)   13.6144   0.0000
 CONDUCTIVITY      1.3158   0.0000
 PRANDTL NUMBER    0.7053   0.0000

  WITH FROZEN REACTIONS

 Cp, KJ/(KG)(K)   13.6144   0.0000
 CONDUCTIVITY      1.3158   0.0000
 PRANDTL NUMBER    0.7053   0.0000

 MOLE FRACTIONS

 *H2              1.00000  1.00000

  * THERMODYNAMIC PROPERTIES FITTED TO 20000.K

 NOTE. WEIGHT FRACTION OF FUEL IN TOTAL FUELS AND OF OXIDANT IN TOTAL OXIDANTS



  
