
 *******************************************************************************

         NASA-GLENN CHEMICAL EQUILIBRIUM PROGRAM CEA2, MAY 21, 2004
                   BY  BONNIE MCBRIDE AND SANFORD GORDON
      REFS: NASA RP-1311, PART I, 1994 AND NASA RP-1311, PART II, 1996

 *******************************************************************************



  prob tp ions
  p,bar= 0.11,0.12,0.132,0.148,0.165,0.18,0.2,0.225,0.25,0.28,0.31,0.35,0.39,0.44
 ,0.49
  t,k= 6950,6960,6970,6980,6990,7000,7010,7020,7030,7040,7050,7060,7070,7080,7090
  
  
  reac
  fuel H2                wt%=100.0000
  oxid H2                wt%=100.0000
  
  output short
  
  output massf
  
  output siunits
  
  output transport
  
 end





               THERMODYNAMIC EQUILIBRIUM PROPERTIES AT ASSIGNED

                           TEMPERATURE AND PRESSURE

 CASE =                

             REACTANT                    WT FRACTION      ENERGY      TEMP
                                          (SEE NOTE)     KJ/KG-MOL      K  
 FUEL        H2                           1.0000000         0.000      0.000
 OXIDANT     H2                           1.0000000         0.000      0.000

 O/F=    1.00000  %FUEL= 50.000000  R,EQ.RATIO= 0.000000  PHI,EQ.RATIO=-1.000000

 THERMODYNAMIC PROPERTIES

 P, BAR           0.11000  0.11000  0.11000  0.11000  0.11000  0.11000  0.11000  0.11000
 T, K             6950.00  6960.00  6970.00  6980.00  6990.00  7000.00  7010.00  7020.00
 RHO, KG/CU M    1.9164-4 1.9136-4 1.9108-4 1.9080-4 1.9053-4 1.9025-4 1.8997-4 1.8970-4
 H, KJ/KG        355271.2 355512.5 355754.3 355996.7 356239.7 356483.2 356727.2 356971.9
 U, KJ/KG        297872.8 298030.1 298187.9 298346.2 298505.1 298664.5 298824.4 298984.8
 G, KJ/KG       -1015569.-1017542.-1019515.-1021488.-1023462.-1025436.-1027410.-1029385.
 S, KJ/(KG)(K)   197.2432 197.2779 197.3126 197.3474 197.3822 197.4170 197.4518 197.4867

 M, (1/n)           1.007    1.007    1.007    1.007    1.007    1.007    1.007    1.007
 (dLV/dLP)t      -1.00076 -1.00077 -1.00078 -1.00079 -1.00081 -1.00082 -1.00083 -1.00084
 (dLV/dLT)p        1.0172   1.0175   1.0178   1.0180   1.0183   1.0186   1.0189   1.0192
 Cp, KJ/(KG)(K)   24.1060  24.1590  24.2128  24.2672  24.3223  24.3781  24.4346  24.4919
 GAMMAs            1.5474   1.5460   1.5445   1.5431   1.5416   1.5402   1.5387   1.5372
 SON VEL,M/SEC     9424.3   9426.9   9429.4   9431.9   9434.3   9436.7   9439.1   9441.4

 TRANSPORT PROPERTIES (GASES ONLY)
   CONDUCTIVITY IN UNITS OF MILLIWATTS/(CM)(K)

 VISC,MILLIPOISE  0.71660  0.71739  0.71818  0.71896  0.71974  0.72052  0.72130  0.72207

  WITH EQUILIBRIUM REACTIONS

 Cp, KJ/(KG)(K)   24.1060  24.1590  24.2128  24.2672  24.3223  24.3781  24.4346  24.4919
 CONDUCTIVITY     23.0598  23.0964  23.1330  23.1698  23.2067  23.2436  23.2806  23.3178
 PRANDTL NUMBER    0.7491   0.7504   0.7517   0.7530   0.7543   0.7557   0.7571   0.7584

  WITH FROZEN REACTIONS

 Cp, KJ/(KG)(K)   20.6482  20.6489  20.6497  20.6505  20.6513  20.6521  20.6529  20.6537
 CONDUCTIVITY     22.3479  22.3752  22.4024  22.4295  22.4566  22.4836  22.5105  22.5374
 PRANDTL NUMBER    0.6621   0.6620   0.6620   0.6619   0.6619   0.6618   0.6618   0.6617

 MASS FRACTIONS

 *H               0.99847  0.99845  0.99843  0.99841  0.99839  0.99836  0.99834  0.99832
 *H+              0.00130  0.00132  0.00134  0.00137  0.00139  0.00142  0.00144  0.00147
 *H2              0.00023  0.00023  0.00022  0.00022  0.00022  0.00022  0.00021  0.00021

  * THERMODYNAMIC PROPERTIES FITTED TO 20000.K

 NOTE. WEIGHT FRACTION OF FUEL IN TOTAL FUELS AND OF OXIDANT IN TOTAL OXIDANTS









               THERMODYNAMIC EQUILIBRIUM PROPERTIES AT ASSIGNED

                           TEMPERATURE AND PRESSURE

 CASE =                

             REACTANT                    WT FRACTION      ENERGY      TEMP
                                          (SEE NOTE)     KJ/KG-MOL      K  
 FUEL        H2                           1.0000000         0.000      0.000
 OXIDANT     H2                           1.0000000         0.000      0.000

 O/F=    1.00000  %FUEL= 50.000000  R,EQ.RATIO= 0.000000  PHI,EQ.RATIO=-1.000000

 THERMODYNAMIC PROPERTIES

 P, BAR           0.11000  0.11000  0.11000  0.11000  0.11000  0.11000  0.11000  0.12000
 T, K             7030.00  7040.00  7050.00  7060.00  7070.00  7080.00  7090.00  6950.00
 RHO, KG/CU M    1.8942-4 1.8915-4 1.8887-4 1.8860-4 1.8833-4 1.8806-4 1.8779-4 2.0908-4
 H, KJ/KG        357217.1 357462.9 357709.3 357956.2 358203.8 358452.0 358700.9 355186.6
 U, KJ/KG        299145.8 299307.4 299469.5 299632.2 299795.5 299959.4 300123.8 297792.0
 G, KJ/KG       -1031360.-1033335.-1035311.-1037287.-1039263.-1041240.-1043217.-1010575.
 S, KJ/(KG)(K)   197.5216 197.5565 197.5915 197.6265 197.6616 197.6966 197.7318 196.5125

 M, (1/n)           1.007    1.007    1.006    1.006    1.006    1.006    1.006    1.007
 (dLV/dLP)t      -1.00085 -1.00086 -1.00088 -1.00089 -1.00090 -1.00091 -1.00093 -1.00075
 (dLV/dLT)p        1.0195   1.0198   1.0201   1.0204   1.0207   1.0210   1.0213   1.0166
 Cp, KJ/(KG)(K)   24.5499  24.6086  24.6681  24.7283  24.7893  24.8510  24.9135  23.9659
 GAMMAs            1.5358   1.5343   1.5328   1.5313   1.5297   1.5282   1.5267   1.5513
 SON VEL,M/SEC     9443.7   9446.0   9448.2   9450.4   9452.5   9454.6   9456.7   9436.0

 TRANSPORT PROPERTIES (GASES ONLY)
   CONDUCTIVITY IN UNITS OF MILLIWATTS/(CM)(K)

 VISC,MILLIPOISE  0.72284  0.72361  0.72437  0.72513  0.72589  0.72664  0.72739  0.71701

  WITH EQUILIBRIUM REACTIONS

 Cp, KJ/(KG)(K)   24.5499  24.6086  24.6681  24.7283  24.7893  24.8510  24.9135  23.9659
 CONDUCTIVITY     23.3550  23.3923  23.4296  23.4671  23.5047  23.5423  23.5801  23.0476
 PRANDTL NUMBER    0.7598   0.7612   0.7627   0.7641   0.7656   0.7670   0.7685   0.7456

  WITH FROZEN REACTIONS

 Cp, KJ/(KG)(K)   20.6545  20.6553  20.6562  20.6570  20.6578  20.6587  20.6596  20.6470
 CONDUCTIVITY     22.5642  22.5909  22.6175  22.6440  22.6705  22.6968  22.7231  22.3549
 PRANDTL NUMBER    0.6617   0.6616   0.6616   0.6615   0.6614   0.6614   0.6613   0.6622

 MASS FRACTIONS

 *H               0.99829  0.99827  0.99825  0.99822  0.99819  0.99817  0.99814  0.99851
 *H+              0.00150  0.00152  0.00155  0.00158  0.00160  0.00163  0.00166  0.00124
 *H2              0.00021  0.00021  0.00020  0.00020  0.00020  0.00020  0.00020  0.00025

  * THERMODYNAMIC PROPERTIES FITTED TO 20000.K

 NOTE. WEIGHT FRACTION OF FUEL IN TOTAL FUELS AND OF OXIDANT IN TOTAL OXIDANTS









               THERMODYNAMIC EQUILIBRIUM PROPERTIES AT ASSIGNED

                           TEMPERATURE AND PRESSURE

 CASE =                

             REACTANT                    WT FRACTION      ENERGY      TEMP
                                          (SEE NOTE)     KJ/KG-MOL      K  
 FUEL        H2                           1.0000000         0.000      0.000
 OXIDANT     H2                           1.0000000         0.000      0.000

 O/F=    1.00000  %FUEL= 50.000000  R,EQ.RATIO= 0.000000  PHI,EQ.RATIO=-1.000000

 THERMODYNAMIC PROPERTIES

 P, BAR           0.12000  0.12000  0.12000  0.12000  0.12000  0.12000  0.12000  0.12000
 T, K             6960.00  6970.00  6980.00  6990.00  7000.00  7010.00  7020.00  7030.00
 RHO, KG/CU M    2.0877-4 2.0847-4 2.0817-4 2.0786-4 2.0756-4 2.0726-4 2.0696-4 2.0666-4
 H, KJ/KG        355426.5 355666.9 355907.9 356149.3 356391.3 356633.8 356876.9 357120.5
 U, KJ/KG        297947.9 298104.4 298261.3 298418.7 298576.7 298735.1 298894.1 299053.5
 G, KJ/KG       -1012540.-1014506.-1016472.-1018438.-1020405.-1022372.-1024339.-1026307.
 S, KJ/(KG)(K)   196.5470 196.5815 196.6160 196.6506 196.6852 196.7198 196.7545 196.7891

 M, (1/n)           1.007    1.007    1.007    1.007    1.007    1.007    1.007    1.007
 (dLV/dLP)t      -1.00076 -1.00077 -1.00078 -1.00079 -1.00080 -1.00081 -1.00082 -1.00083
 (dLV/dLT)p        1.0169   1.0171   1.0174   1.0177   1.0179   1.0182   1.0185   1.0188
 Cp, KJ/(KG)(K)   24.0165  24.0678  24.1198  24.1725  24.2258  24.2799  24.3346  24.3900
 GAMMAs            1.5499   1.5486   1.5471   1.5457   1.5443   1.5429   1.5414   1.5400
 SON VEL,M/SEC     9438.7   9441.3   9443.9   9446.5   9449.0   9451.5   9454.0   9456.4

 TRANSPORT PROPERTIES (GASES ONLY)
   CONDUCTIVITY IN UNITS OF MILLIWATTS/(CM)(K)

 VISC,MILLIPOISE  0.71781  0.71861  0.71940  0.72019  0.72098  0.72176  0.72255  0.72332

  WITH EQUILIBRIUM REACTIONS

 Cp, KJ/(KG)(K)   24.0165  24.0678  24.1198  24.1725  24.2258  24.2799  24.3346  24.3900
 CONDUCTIVITY     23.0838  23.1201  23.1565  23.1930  23.2296  23.2662  23.3030  23.3399
 PRANDTL NUMBER    0.7468   0.7481   0.7493   0.7506   0.7519   0.7532   0.7545   0.7559

  WITH FROZEN REACTIONS

 Cp, KJ/(KG)(K)   20.6478  20.6485  20.6493  20.6501  20.6508  20.6516  20.6524  20.6532
 CONDUCTIVITY     22.3824  22.4098  22.4371  22.4644  22.4916  22.5187  22.5457  22.5727
 PRANDTL NUMBER    0.6622   0.6621   0.6621   0.6620   0.6620   0.6619   0.6619   0.6618

 MASS FRACTIONS

 *H               0.99849  0.99847  0.99845  0.99843  0.99841  0.99838  0.99836  0.99834
 *H+              0.00126  0.00129  0.00131  0.00133  0.00136  0.00138  0.00141  0.00143
 *H2              0.00025  0.00024  0.00024  0.00024  0.00024  0.00023  0.00023  0.00023

  * THERMODYNAMIC PROPERTIES FITTED TO 20000.K

 NOTE. WEIGHT FRACTION OF FUEL IN TOTAL FUELS AND OF OXIDANT IN TOTAL OXIDANTS









               THERMODYNAMIC EQUILIBRIUM PROPERTIES AT ASSIGNED

                           TEMPERATURE AND PRESSURE

 CASE =                

             REACTANT                    WT FRACTION      ENERGY      TEMP
                                          (SEE NOTE)     KJ/KG-MOL      K  
 FUEL        H2                           1.0000000         0.000      0.000
 OXIDANT     H2                           1.0000000         0.000      0.000

 O/F=    1.00000  %FUEL= 50.000000  R,EQ.RATIO= 0.000000  PHI,EQ.RATIO=-1.000000

 THERMODYNAMIC PROPERTIES

 P, BAR           0.12000  0.12000  0.12000  0.12000  0.12000  0.12000  0.13200  0.13200
 T, K             7040.00  7050.00  7060.00  7070.00  7080.00  7090.00  6950.00  6960.00
 RHO, KG/CU M    2.0636-4 2.0606-4 2.0576-4 2.0547-4 2.0517-4 2.0487-4 2.3000-4 2.2967-4
 H, KJ/KG        357364.7 357609.5 357854.8 358100.7 358347.2 358594.2 355097.3 355335.8
 U, KJ/KG        299213.6 299374.1 299535.2 299696.9 299859.1 300021.9 297706.8 297861.3
 G, KJ/KG       -1028275.-1030244.-1032212.-1034181.-1036151.-1038121.-1005105.-1007062.
 S, KJ/(KG)(K)   196.8238 196.8586 196.8934 196.9282 196.9630 196.9979 195.7126 195.7468

 M, (1/n)           1.007    1.007    1.007    1.007    1.006    1.006    1.007    1.007
 (dLV/dLP)t      -1.00084 -1.00085 -1.00086 -1.00088 -1.00089 -1.00090 -1.00073 -1.00074
 (dLV/dLT)p        1.0190   1.0193   1.0196   1.0199   1.0202   1.0205   1.0160   1.0162
 Cp, KJ/(KG)(K)   24.4462  24.5030  24.5606  24.6189  24.6779  24.7377  23.8200  23.8682
 GAMMAs            1.5385   1.5371   1.5356   1.5341   1.5327   1.5312   1.5555   1.5542
 SON VEL,M/SEC     9458.8   9461.1   9463.4   9465.7   9467.9   9470.1   9448.4   9451.2

 TRANSPORT PROPERTIES (GASES ONLY)
   CONDUCTIVITY IN UNITS OF MILLIWATTS/(CM)(K)

 VISC,MILLIPOISE  0.72410  0.72487  0.72564  0.72641  0.72717  0.72793  0.71745  0.71826

  WITH EQUILIBRIUM REACTIONS

 Cp, KJ/(KG)(K)   24.4462  24.5030  24.5606  24.6189  24.6779  24.7377  23.8200  23.8682
 CONDUCTIVITY     23.3768  23.4138  23.4509  23.4881  23.5254  23.5628  23.0358  23.0716
 PRANDTL NUMBER    0.7572   0.7586   0.7600   0.7614   0.7628   0.7642   0.7419   0.7431

  WITH FROZEN REACTIONS

 Cp, KJ/(KG)(K)   20.6540  20.6548  20.6556  20.6564  20.6573  20.6581  20.6458  20.6466
 CONDUCTIVITY     22.5996  22.6265  22.6532  22.6799  22.7065  22.7331  22.3622  22.3898
 PRANDTL NUMBER    0.6618   0.6617   0.6617   0.6616   0.6615   0.6615   0.6624   0.6623

 MASS FRACTIONS

 *H               0.99832  0.99829  0.99827  0.99824  0.99822  0.99819  0.99854  0.99852
 *H+              0.00146  0.00148  0.00151  0.00154  0.00156  0.00159  0.00118  0.00120
 *H2              0.00023  0.00022  0.00022  0.00022  0.00022  0.00021  0.00028  0.00027

  * THERMODYNAMIC PROPERTIES FITTED TO 20000.K

 NOTE. WEIGHT FRACTION OF FUEL IN TOTAL FUELS AND OF OXIDANT IN TOTAL OXIDANTS









               THERMODYNAMIC EQUILIBRIUM PROPERTIES AT ASSIGNED

                           TEMPERATURE AND PRESSURE

 CASE =                

             REACTANT                    WT FRACTION      ENERGY      TEMP
                                          (SEE NOTE)     KJ/KG-MOL      K  
 FUEL        H2                           1.0000000         0.000      0.000
 OXIDANT     H2                           1.0000000         0.000      0.000

 O/F=    1.00000  %FUEL= 50.000000  R,EQ.RATIO= 0.000000  PHI,EQ.RATIO=-1.000000

 THERMODYNAMIC PROPERTIES

 P, BAR           0.13200  0.13200  0.13200  0.13200  0.13200  0.13200  0.13200  0.13200
 T, K             6970.00  6980.00  6990.00  7000.00  7010.00  7020.00  7030.00  7040.00
 RHO, KG/CU M    2.2933-4 2.2900-4 2.2867-4 2.2833-4 2.2800-4 2.2767-4 2.2734-4 2.2701-4
 H, KJ/KG        355574.7 355814.1 356054.0 356294.5 356535.4 356776.8 357018.8 357261.3
 U, KJ/KG        298016.3 298171.8 298327.7 298484.1 298641.0 298798.4 298956.3 299114.8
 G, KJ/KG       -1009020.-1010978.-1012936.-1014895.-1016854.-1018813.-1020773.-1022733.
 S, KJ/(KG)(K)   195.7811 195.8155 195.8498 195.8842 195.9186 195.9530 195.9874 196.0219

 M, (1/n)           1.007    1.007    1.007    1.007    1.007    1.007    1.007    1.007
 (dLV/dLP)t      -1.00075 -1.00076 -1.00077 -1.00078 -1.00079 -1.00080 -1.00081 -1.00082
 (dLV/dLT)p        1.0165   1.0167   1.0170   1.0172   1.0175   1.0178   1.0180   1.0183
 Cp, KJ/(KG)(K)   23.9170  23.9665  24.0165  24.0673  24.1187  24.1708  24.2235  24.2769
 GAMMAs            1.5528   1.5515   1.5501   1.5487   1.5473   1.5459   1.5445   1.5431
 SON VEL,M/SEC     9454.0   9456.7   9459.4   9462.1   9464.7   9467.3   9469.9   9472.4

 TRANSPORT PROPERTIES (GASES ONLY)
   CONDUCTIVITY IN UNITS OF MILLIWATTS/(CM)(K)

 VISC,MILLIPOISE  0.71906  0.71986  0.72066  0.72146  0.72225  0.72304  0.72383  0.72462

  WITH EQUILIBRIUM REACTIONS

 Cp, KJ/(KG)(K)   23.9170  23.9665  24.0165  24.0673  24.1187  24.1708  24.2235  24.2769
 CONDUCTIVITY     23.1076  23.1436  23.1797  23.2159  23.2521  23.2885  23.3250  23.3615
 PRANDTL NUMBER    0.7443   0.7455   0.7467   0.7479   0.7492   0.7504   0.7517   0.7530

  WITH FROZEN REACTIONS

 Cp, KJ/(KG)(K)   20.6473  20.6481  20.6488  20.6495  20.6503  20.6511  20.6518  20.6526
 CONDUCTIVITY     22.4174  22.4449  22.4724  22.4998  22.5271  22.5544  22.5816  22.6087
 PRANDTL NUMBER    0.6623   0.6622   0.6622   0.6621   0.6621   0.6620   0.6620   0.6619

 MASS FRACTIONS

 *H               0.99850  0.99848  0.99847  0.99845  0.99842  0.99840  0.99838  0.99836
 *H+              0.00123  0.00125  0.00127  0.00129  0.00132  0.00134  0.00136  0.00139
 *H2              0.00027  0.00027  0.00026  0.00026  0.00026  0.00025  0.00025  0.00025

  * THERMODYNAMIC PROPERTIES FITTED TO 20000.K

 NOTE. WEIGHT FRACTION OF FUEL IN TOTAL FUELS AND OF OXIDANT IN TOTAL OXIDANTS









               THERMODYNAMIC EQUILIBRIUM PROPERTIES AT ASSIGNED

                           TEMPERATURE AND PRESSURE

 CASE =                

             REACTANT                    WT FRACTION      ENERGY      TEMP
                                          (SEE NOTE)     KJ/KG-MOL      K  
 FUEL        H2                           1.0000000         0.000      0.000
 OXIDANT     H2                           1.0000000         0.000      0.000

 O/F=    1.00000  %FUEL= 50.000000  R,EQ.RATIO= 0.000000  PHI,EQ.RATIO=-1.000000

 THERMODYNAMIC PROPERTIES

 P, BAR           0.13200  0.13200  0.13200  0.13200  0.13200  0.14800  0.14800  0.14800
 T, K             7050.00  7060.00  7070.00  7080.00  7090.00  6950.00  6960.00  6970.00
 RHO, KG/CU M    2.2668-4 2.2636-4 2.2603-4 2.2571-4 2.2538-4 2.5790-4 2.5753-4 2.5715-4
 H, KJ/KG        357504.3 357747.9 357992.1 358236.8 358482.0 354994.6 355231.3 355468.6
 U, KJ/KG        299273.7 299433.1 299593.1 299753.6 299914.6 297608.7 297761.7 297915.0
 G, KJ/KG       -1024693.-1026654.-1028615.-1030577.-1032538.-998539.1-1000487.-1002435.
 S, KJ/(KG)(K)   196.0564 196.0909 196.1255 196.1601 196.1947 194.7530 194.7871 194.8212

 M, (1/n)           1.007    1.007    1.007    1.007    1.007    1.007    1.007    1.007
 (dLV/dLP)t      -1.00083 -1.00084 -1.00085 -1.00086 -1.00088 -1.00071 -1.00072 -1.00073
 (dLV/dLT)p        1.0186   1.0188   1.0191   1.0194   1.0197   1.0153   1.0155   1.0158
 Cp, KJ/(KG)(K)   24.3310  24.3858  24.4413  24.4975  24.5543  23.6552  23.7005  23.7464
 GAMMAs            1.5417   1.5403   1.5388   1.5374   1.5359   1.5603   1.5590   1.5577
 SON VEL,M/SEC     9474.9   9477.3   9479.7   9482.1   9484.4   9462.6   9465.6   9468.6

 TRANSPORT PROPERTIES (GASES ONLY)
   CONDUCTIVITY IN UNITS OF MILLIWATTS/(CM)(K)

 VISC,MILLIPOISE  0.72540  0.72618  0.72695  0.72772  0.72849  0.71796  0.71877  0.71959

  WITH EQUILIBRIUM REACTIONS

 Cp, KJ/(KG)(K)   24.3310  24.3858  24.4413  24.4975  24.5543  23.6552  23.7005  23.7464
 CONDUCTIVITY     23.3981  23.4349  23.4717  23.5085  23.5455  23.0241  23.0594  23.0949
 PRANDTL NUMBER    0.7543   0.7556   0.7570   0.7583   0.7597   0.7376   0.7388   0.7399

  WITH FROZEN REACTIONS

 Cp, KJ/(KG)(K)   20.6534  20.6542  20.6550  20.6558  20.6566  20.6445  20.6452  20.6459
 CONDUCTIVITY     22.6358  22.6628  22.6897  22.7165  22.7433  22.3703  22.3982  22.4260
 PRANDTL NUMBER    0.6619   0.6618   0.6618   0.6617   0.6617   0.6626   0.6625   0.6625

 MASS FRACTIONS

 *H               0.99834  0.99832  0.99829  0.99827  0.99825  0.99857  0.99856  0.99854
 *H+              0.00141  0.00144  0.00146  0.00149  0.00152  0.00112  0.00114  0.00116
 *H2              0.00025  0.00024  0.00024  0.00024  0.00023  0.00031  0.00031  0.00030

  * THERMODYNAMIC PROPERTIES FITTED TO 20000.K

 NOTE. WEIGHT FRACTION OF FUEL IN TOTAL FUELS AND OF OXIDANT IN TOTAL OXIDANTS









               THERMODYNAMIC EQUILIBRIUM PROPERTIES AT ASSIGNED

                           TEMPERATURE AND PRESSURE

 CASE =                

             REACTANT                    WT FRACTION      ENERGY      TEMP
                                          (SEE NOTE)     KJ/KG-MOL      K  
 FUEL        H2                           1.0000000         0.000      0.000
 OXIDANT     H2                           1.0000000         0.000      0.000

 O/F=    1.00000  %FUEL= 50.000000  R,EQ.RATIO= 0.000000  PHI,EQ.RATIO=-1.000000

 THERMODYNAMIC PROPERTIES

 P, BAR           0.14800  0.14800  0.14800  0.14800  0.14800  0.14800  0.14800  0.14800
 T, K             6980.00  6990.00  7000.00  7010.00  7020.00  7030.00  7040.00  7050.00
 RHO, KG/CU M    2.5678-4 2.5640-4 2.5603-4 2.5566-4 2.5529-4 2.5492-4 2.5455-4 2.5419-4
 H, KJ/KG        355706.3 355944.4 356183.1 356422.2 356661.8 356901.9 357142.5 357383.6
 U, KJ/KG        298068.9 298223.1 298377.8 298533.0 298688.6 298844.7 299001.3 299158.4
 G, KJ/KG       -1004383.-1006332.-1008281.-1010230.-1012180.-1014130.-1016081.-1018031.
 S, KJ/(KG)(K)   194.8552 194.8893 194.9234 194.9576 194.9917 195.0259 195.0601 195.0943

 M, (1/n)           1.007    1.007    1.007    1.007    1.007    1.007    1.007    1.007
 (dLV/dLP)t      -1.00074 -1.00075 -1.00076 -1.00077 -1.00078 -1.00079 -1.00080 -1.00081
 (dLV/dLT)p        1.0160   1.0162   1.0165   1.0167   1.0169   1.0172   1.0174   1.0177
 Cp, KJ/(KG)(K)   23.7930  23.8401  23.8879  23.9363  23.9853  24.0350  24.0853  24.1362
 GAMMAs            1.5564   1.5551   1.5538   1.5524   1.5511   1.5497   1.5484   1.5470
 SON VEL,M/SEC     9471.5   9474.3   9477.2   9480.0   9482.7   9485.5   9488.2   9490.8

 TRANSPORT PROPERTIES (GASES ONLY)
   CONDUCTIVITY IN UNITS OF MILLIWATTS/(CM)(K)

 VISC,MILLIPOISE  0.72040  0.72121  0.72201  0.72282  0.72362  0.72441  0.72521  0.72600

  WITH EQUILIBRIUM REACTIONS

 Cp, KJ/(KG)(K)   23.7930  23.8401  23.8879  23.9363  23.9853  24.0350  24.0853  24.1362
 CONDUCTIVITY     23.1304  23.1660  23.2018  23.2376  23.2734  23.3094  23.3455  23.3817
 PRANDTL NUMBER    0.7410   0.7422   0.7434   0.7446   0.7457   0.7470   0.7482   0.7494

  WITH FROZEN REACTIONS

 Cp, KJ/(KG)(K)   20.6466  20.6474  20.6481  20.6488  20.6495  20.6503  20.6510  20.6518
 CONDUCTIVITY     22.4537  22.4814  22.5090  22.5366  22.5641  22.5915  22.6189  22.6462
 PRANDTL NUMBER    0.6624   0.6624   0.6623   0.6623   0.6622   0.6622   0.6621   0.6621

 MASS FRACTIONS

 *H               0.99852  0.99850  0.99849  0.99847  0.99845  0.99843  0.99841  0.99839
 *H+              0.00118  0.00120  0.00122  0.00124  0.00127  0.00129  0.00131  0.00134
 *H2              0.00030  0.00029  0.00029  0.00029  0.00028  0.00028  0.00028  0.00028

  * THERMODYNAMIC PROPERTIES FITTED TO 20000.K

 NOTE. WEIGHT FRACTION OF FUEL IN TOTAL FUELS AND OF OXIDANT IN TOTAL OXIDANTS









               THERMODYNAMIC EQUILIBRIUM PROPERTIES AT ASSIGNED

                           TEMPERATURE AND PRESSURE

 CASE =                

             REACTANT                    WT FRACTION      ENERGY      TEMP
                                          (SEE NOTE)     KJ/KG-MOL      K  
 FUEL        H2                           1.0000000         0.000      0.000
 OXIDANT     H2                           1.0000000         0.000      0.000

 O/F=    1.00000  %FUEL= 50.000000  R,EQ.RATIO= 0.000000  PHI,EQ.RATIO=-1.000000

 THERMODYNAMIC PROPERTIES

 P, BAR           0.14800  0.14800  0.14800  0.14800  0.16500  0.16500  0.16500  0.16500
 T, K             7060.00  7070.00  7080.00  7090.00  6950.00  6960.00  6970.00  6980.00
 RHO, KG/CU M    2.5382-4 2.5345-4 2.5309-4 2.5273-4 2.8755-4 2.8713-4 2.8671-4 2.8630-4
 H, KJ/KG        357625.2 357867.4 358110.0 358353.2 354900.9 355136.2 355371.9 355608.1
 U, KJ/KG        299315.9 299474.0 299632.6 299791.6 297519.5 297671.0 297822.9 297975.3
 G, KJ/KG       -1019983.-1021934.-1023886.-1025838.-992299.6-994238.2-996177.1-998116.4
 S, KJ/(KG)(K)   195.1286 195.1629 195.1972 195.2315 193.8418 193.8756 193.9095 193.9433

 M, (1/n)           1.007    1.007    1.007    1.007    1.007    1.007    1.007    1.007
 (dLV/dLP)t      -1.00082 -1.00083 -1.00084 -1.00085 -1.00070 -1.00071 -1.00072 -1.00072
 (dLV/dLT)p        1.0180   1.0182   1.0185   1.0188   1.0147   1.0149   1.0151   1.0153
 Cp, KJ/(KG)(K)   24.1878  24.2401  24.2930  24.3466  23.5085  23.5512  23.5946  23.6385
 GAMMAs            1.5456   1.5442   1.5429   1.5414   1.5647   1.5635   1.5622   1.5610
 SON VEL,M/SEC     9493.4   9496.0   9498.5   9501.0   9475.6   9478.7   9481.8   9484.9

 TRANSPORT PROPERTIES (GASES ONLY)
   CONDUCTIVITY IN UNITS OF MILLIWATTS/(CM)(K)

 VISC,MILLIPOISE  0.72679  0.72758  0.72836  0.72914  0.71841  0.71924  0.72006  0.72088

  WITH EQUILIBRIUM REACTIONS

 Cp, KJ/(KG)(K)   24.1878  24.2401  24.2930  24.3466  23.5085  23.5512  23.5946  23.6385
 CONDUCTIVITY     23.4179  23.4542  23.4906  23.5271  23.0154  23.0503  23.0853  23.1204
 PRANDTL NUMBER    0.7507   0.7520   0.7532   0.7545   0.7338   0.7349   0.7359   0.7370

  WITH FROZEN REACTIONS

 Cp, KJ/(KG)(K)   20.6525  20.6533  20.6541  20.6548  20.6433  20.6440  20.6447  20.6454
 CONDUCTIVITY     22.6735  22.7007  22.7278  22.7548  22.3776  22.4056  22.4336  22.4615
 PRANDTL NUMBER    0.6620   0.6620   0.6619   0.6619   0.6627   0.6627   0.6626   0.6626

 MASS FRACTIONS

 *H               0.99837  0.99835  0.99832  0.99830  0.99860  0.99858  0.99857  0.99855
 *H+              0.00136  0.00138  0.00141  0.00143  0.00106  0.00108  0.00110  0.00112
 *H2              0.00027  0.00027  0.00027  0.00026  0.00034  0.00034  0.00034  0.00033

  * THERMODYNAMIC PROPERTIES FITTED TO 20000.K

 NOTE. WEIGHT FRACTION OF FUEL IN TOTAL FUELS AND OF OXIDANT IN TOTAL OXIDANTS









               THERMODYNAMIC EQUILIBRIUM PROPERTIES AT ASSIGNED

                           TEMPERATURE AND PRESSURE

 CASE =                

             REACTANT                    WT FRACTION      ENERGY      TEMP
                                          (SEE NOTE)     KJ/KG-MOL      K  
 FUEL        H2                           1.0000000         0.000      0.000
 OXIDANT     H2                           1.0000000         0.000      0.000

 O/F=    1.00000  %FUEL= 50.000000  R,EQ.RATIO= 0.000000  PHI,EQ.RATIO=-1.000000

 THERMODYNAMIC PROPERTIES

 P, BAR           0.16500  0.16500  0.16500  0.16500  0.16500  0.16500  0.16500  0.16500
 T, K             6990.00  7000.00  7010.00  7020.00  7030.00  7040.00  7050.00  7060.00
 RHO, KG/CU M    2.8588-4 2.8546-4 2.8505-4 2.8464-4 2.8423-4 2.8382-4 2.8341-4 2.8300-4
 H, KJ/KG        355844.7 356081.8 356319.3 356557.2 356795.7 357034.6 357274.0 357513.8
 U, KJ/KG        298128.0 298281.2 298434.8 298588.9 298743.4 298898.4 299053.8 299209.7
 G, KJ/KG       -1000056.-1001996.-1003936.-1005877.-1007818.-1009759.-1011701.-1013643.
 S, KJ/(KG)(K)   193.9772 194.0111 194.0450 194.0789 194.1129 194.1468 194.1808 194.2148

 M, (1/n)           1.007    1.007    1.007    1.007    1.007    1.007    1.007    1.007
 (dLV/dLP)t      -1.00073 -1.00074 -1.00075 -1.00076 -1.00077 -1.00078 -1.00079 -1.00080
 (dLV/dLT)p        1.0156   1.0158   1.0160   1.0162   1.0165   1.0167   1.0169   1.0172
 Cp, KJ/(KG)(K)   23.6829  23.7280  23.7737  23.8199  23.8668  23.9143  23.9624  24.0111
 GAMMAs            1.5597   1.5584   1.5571   1.5558   1.5545   1.5532   1.5519   1.5506
 SON VEL,M/SEC     9487.9   9490.9   9493.9   9496.8   9499.7   9502.5   9505.3   9508.1

 TRANSPORT PROPERTIES (GASES ONLY)
   CONDUCTIVITY IN UNITS OF MILLIWATTS/(CM)(K)

 VISC,MILLIPOISE  0.72170  0.72251  0.72333  0.72414  0.72494  0.72575  0.72655  0.72735

  WITH EQUILIBRIUM REACTIONS

 Cp, KJ/(KG)(K)   23.6829  23.7280  23.7737  23.8199  23.8668  23.9143  23.9624  24.0111
 CONDUCTIVITY     23.1555  23.1908  23.2261  23.2616  23.2971  23.3327  23.3684  23.4042
 PRANDTL NUMBER    0.7381   0.7393   0.7404   0.7415   0.7427   0.7438   0.7450   0.7462

  WITH FROZEN REACTIONS

 Cp, KJ/(KG)(K)   20.6461  20.6468  20.6475  20.6482  20.6489  20.6496  20.6503  20.6511
 CONDUCTIVITY     22.4894  22.5172  22.5450  22.5727  22.6003  22.6279  22.6555  22.6830
 PRANDTL NUMBER    0.6625   0.6625   0.6624   0.6624   0.6623   0.6623   0.6622   0.6622

 MASS FRACTIONS

 *H               0.99853  0.99852  0.99850  0.99848  0.99846  0.99845  0.99843  0.99841
 *H+              0.00114  0.00116  0.00118  0.00120  0.00122  0.00124  0.00126  0.00129
 *H2              0.00033  0.00033  0.00032  0.00032  0.00031  0.00031  0.00031  0.00030

  * THERMODYNAMIC PROPERTIES FITTED TO 20000.K

 NOTE. WEIGHT FRACTION OF FUEL IN TOTAL FUELS AND OF OXIDANT IN TOTAL OXIDANTS









               THERMODYNAMIC EQUILIBRIUM PROPERTIES AT ASSIGNED

                           TEMPERATURE AND PRESSURE

 CASE =                

             REACTANT                    WT FRACTION      ENERGY      TEMP
                                          (SEE NOTE)     KJ/KG-MOL      K  
 FUEL        H2                           1.0000000         0.000      0.000
 OXIDANT     H2                           1.0000000         0.000      0.000

 O/F=    1.00000  %FUEL= 50.000000  R,EQ.RATIO= 0.000000  PHI,EQ.RATIO=-1.000000

 THERMODYNAMIC PROPERTIES

 P, BAR           0.16500  0.16500  0.16500  0.18000  0.18000  0.18000  0.18000  0.18000
 T, K             7070.00  7080.00  7090.00  6950.00  6960.00  6970.00  6980.00  6990.00
 RHO, KG/CU M    2.8259-4 2.8219-4 2.8178-4 3.1371-4 3.1325-4 3.1280-4 3.1234-4 3.1189-4
 H, KJ/KG        357754.2 357995.0 358236.4 354828.6 355062.8 355297.4 355532.4 355767.8
 U, KJ/KG        299366.0 299522.8 299680.1 297450.6 297601.1 297751.9 297903.1 298054.8
 G, KJ/KG       -1015585.-1017528.-1019471.-987306.9-989238.2-991169.9-993101.8-995034.2
 S, KJ/(KG)(K)   194.2488 194.2829 194.3169 193.1130 193.1467 193.1804 193.2141 193.2478

 M, (1/n)           1.007    1.007    1.007    1.007    1.007    1.007    1.007    1.007
 (dLV/dLP)t      -1.00081 -1.00082 -1.00083 -1.00069 -1.00070 -1.00071 -1.00072 -1.00072
 (dLV/dLT)p        1.0174   1.0177   1.0179   1.0143   1.0145   1.0147   1.0149   1.0151
 Cp, KJ/(KG)(K)   24.0604  24.1104  24.1610  23.3979  23.4386  23.4799  23.5218  23.5642
 GAMMAs            1.5492   1.5479   1.5465   1.5681   1.5669   1.5657   1.5645   1.5632
 SON VEL,M/SEC     9510.8   9513.5   9516.2   9485.5   9488.8   9492.0   9495.2   9498.4

 TRANSPORT PROPERTIES (GASES ONLY)
   CONDUCTIVITY IN UNITS OF MILLIWATTS/(CM)(K)

 VISC,MILLIPOISE  0.72815  0.72894  0.72973  0.71877  0.71960  0.72043  0.72125  0.72208

  WITH EQUILIBRIUM REACTIONS

 Cp, KJ/(KG)(K)   24.0604  24.1104  24.1610  23.3979  23.4386  23.4799  23.5218  23.5642
 CONDUCTIVITY     23.4401  23.4761  23.5121  23.0102  23.0448  23.0794  23.1141  23.1489
 PRANDTL NUMBER    0.7474   0.7486   0.7499   0.7309   0.7319   0.7329   0.7340   0.7350

  WITH FROZEN REACTIONS

 Cp, KJ/(KG)(K)   20.6518  20.6525  20.6533  20.6424  20.6430  20.6437  20.6444  20.6451
 CONDUCTIVITY     22.7104  22.7377  22.7650  22.3830  22.4112  22.4393  22.4674  22.4954
 PRANDTL NUMBER    0.6621   0.6621   0.6620   0.6629   0.6628   0.6628   0.6627   0.6627

 MASS FRACTIONS

 *H               0.99839  0.99837  0.99835  0.99861  0.99860  0.99858  0.99857  0.99855
 *H+              0.00131  0.00133  0.00136  0.00101  0.00103  0.00105  0.00107  0.00109
 *H2              0.00030  0.00030  0.00029  0.00038  0.00037  0.00037  0.00036  0.00036

  * THERMODYNAMIC PROPERTIES FITTED TO 20000.K

 NOTE. WEIGHT FRACTION OF FUEL IN TOTAL FUELS AND OF OXIDANT IN TOTAL OXIDANTS









               THERMODYNAMIC EQUILIBRIUM PROPERTIES AT ASSIGNED

                           TEMPERATURE AND PRESSURE

 CASE =                

             REACTANT                    WT FRACTION      ENERGY      TEMP
                                          (SEE NOTE)     KJ/KG-MOL      K  
 FUEL        H2                           1.0000000         0.000      0.000
 OXIDANT     H2                           1.0000000         0.000      0.000

 O/F=    1.00000  %FUEL= 50.000000  R,EQ.RATIO= 0.000000  PHI,EQ.RATIO=-1.000000

 THERMODYNAMIC PROPERTIES

 P, BAR           0.18000  0.18000  0.18000  0.18000  0.18000  0.18000  0.18000  0.18000
 T, K             7000.00  7010.00  7020.00  7030.00  7040.00  7050.00  7060.00  7070.00
 RHO, KG/CU M    3.1144-4 3.1098-4 3.1053-4 3.1009-4 3.0964-4 3.0919-4 3.0875-4 3.0830-4
 H, KJ/KG        356003.7 356239.9 356476.7 356713.8 356951.5 357189.5 357428.1 357667.1
 U, KJ/KG        298206.8 298359.3 298512.1 298665.4 298819.1 298973.3 299127.9 299283.0
 G, KJ/KG       -996966.8-998899.8-1000833.-1002767.-1004701.-1006635.-1008570.-1010505.
 S, KJ/(KG)(K)   193.2815 193.3152 193.3490 193.3827 193.4165 193.4503 193.4841 193.5179

 M, (1/n)           1.007    1.007    1.007    1.007    1.007    1.007    1.007    1.007
 (dLV/dLP)t      -1.00073 -1.00074 -1.00075 -1.00076 -1.00076 -1.00077 -1.00078 -1.00079
 (dLV/dLT)p        1.0153   1.0155   1.0157   1.0159   1.0162   1.0164   1.0166   1.0169
 Cp, KJ/(KG)(K)   23.6072  23.6508  23.6950  23.7397  23.7850  23.8309  23.8774  23.9245
 GAMMAs            1.5620   1.5608   1.5595   1.5582   1.5569   1.5557   1.5544   1.5531
 SON VEL,M/SEC     9501.5   9504.6   9507.6   9510.7   9513.6   9516.6   9519.5   9522.3

 TRANSPORT PROPERTIES (GASES ONLY)
   CONDUCTIVITY IN UNITS OF MILLIWATTS/(CM)(K)

 VISC,MILLIPOISE  0.72290  0.72372  0.72453  0.72535  0.72616  0.72697  0.72778  0.72858

  WITH EQUILIBRIUM REACTIONS

 Cp, KJ/(KG)(K)   23.6072  23.6508  23.6950  23.7397  23.7850  23.8309  23.8774  23.9245
 CONDUCTIVITY     23.1838  23.2188  23.2539  23.2890  23.3243  23.3596  23.3950  23.4305
 PRANDTL NUMBER    0.7361   0.7372   0.7383   0.7394   0.7405   0.7416   0.7428   0.7439

  WITH FROZEN REACTIONS

 Cp, KJ/(KG)(K)   20.6457  20.6464  20.6471  20.6478  20.6485  20.6492  20.6499  20.6507
 CONDUCTIVITY     22.5234  22.5513  22.5791  22.6070  22.6347  22.6624  22.6901  22.7177
 PRANDTL NUMBER    0.6626   0.6626   0.6625   0.6625   0.6624   0.6624   0.6623   0.6623

 MASS FRACTIONS

 *H               0.99854  0.99852  0.99850  0.99849  0.99847  0.99845  0.99844  0.99842
 *H+              0.00111  0.00113  0.00115  0.00117  0.00119  0.00121  0.00123  0.00125
 *H2              0.00035  0.00035  0.00035  0.00034  0.00034  0.00034  0.00033  0.00033

  * THERMODYNAMIC PROPERTIES FITTED TO 20000.K

 NOTE. WEIGHT FRACTION OF FUEL IN TOTAL FUELS AND OF OXIDANT IN TOTAL OXIDANTS









               THERMODYNAMIC EQUILIBRIUM PROPERTIES AT ASSIGNED

                           TEMPERATURE AND PRESSURE

 CASE =                

             REACTANT                    WT FRACTION      ENERGY      TEMP
                                          (SEE NOTE)     KJ/KG-MOL      K  
 FUEL        H2                           1.0000000         0.000      0.000
 OXIDANT     H2                           1.0000000         0.000      0.000

 O/F=    1.00000  %FUEL= 50.000000  R,EQ.RATIO= 0.000000  PHI,EQ.RATIO=-1.000000

 THERMODYNAMIC PROPERTIES

 P, BAR           0.18000  0.18000  0.20000  0.20000  0.20000  0.20000  0.20000  0.20000
 T, K             7080.00  7090.00  6950.00  6960.00  6970.00  6980.00  6990.00  7000.00
 RHO, KG/CU M    3.0786-4 3.0742-4 3.4859-4 3.4808-4 3.4758-4 3.4707-4 3.4657-4 3.4607-4
 H, KJ/KG        357906.6 358146.5 354743.8 354976.7 355210.0 355443.7 355677.8 355912.3
 U, KJ/KG        299438.5 299594.4 297370.0 297519.3 297668.8 297818.8 297969.1 298119.9
 G, KJ/KG       -1012440.-1014376.-981261.8-983184.3-985107.1-987030.2-988953.7-990877.5
 S, KJ/(KG)(K)   193.5518 193.5857 192.2310 192.2645 192.2980 192.3315 192.3650 192.3985

 M, (1/n)           1.007    1.007    1.007    1.007    1.007    1.007    1.007    1.007
 (dLV/dLP)t      -1.00080 -1.00081 -1.00069 -1.00070 -1.00070 -1.00071 -1.00072 -1.00072
 (dLV/dLT)p        1.0171   1.0173   1.0138   1.0140   1.0142   1.0143   1.0145   1.0147
 Cp, KJ/(KG)(K)   23.9722  24.0205  23.2717  23.3101  23.3491  23.3886  23.4287  23.4693
 GAMMAs            1.5518   1.5504   1.5721   1.5709   1.5697   1.5686   1.5674   1.5662
 SON VEL,M/SEC     9525.1   9527.9   9497.1   9500.5   9503.9   9507.3   9510.6   9513.8

 TRANSPORT PROPERTIES (GASES ONLY)
   CONDUCTIVITY IN UNITS OF MILLIWATTS/(CM)(K)

 VISC,MILLIPOISE  0.72938  0.73018  0.71918  0.72002  0.72085  0.72169  0.72252  0.72335

  WITH EQUILIBRIUM REACTIONS

 Cp, KJ/(KG)(K)   23.9722  24.0205  23.2717  23.3101  23.3491  23.3886  23.4287  23.4693
 CONDUCTIVITY     23.4661  23.5018  23.0063  23.0403  23.0745  23.1088  23.1431  23.1775
 PRANDTL NUMBER    0.7451   0.7463   0.7275   0.7284   0.7294   0.7304   0.7314   0.7325

  WITH FROZEN REACTIONS

 Cp, KJ/(KG)(K)   20.6514  20.6521  20.6413  20.6420  20.6426  20.6433  20.6439  20.6446
 CONDUCTIVITY     22.7452  22.7727  22.3893  22.4176  22.4459  22.4741  22.5023  22.5304
 PRANDTL NUMBER    0.6622   0.6622   0.6630   0.6630   0.6629   0.6629   0.6628   0.6628

 MASS FRACTIONS

 *H               0.99840  0.99838  0.99862  0.99861  0.99860  0.99858  0.99857  0.99855
 *H+              0.00128  0.00130  0.00096  0.00098  0.00100  0.00101  0.00103  0.00105
 *H2              0.00032  0.00032  0.00042  0.00041  0.00041  0.00040  0.00040  0.00039

  * THERMODYNAMIC PROPERTIES FITTED TO 20000.K

 NOTE. WEIGHT FRACTION OF FUEL IN TOTAL FUELS AND OF OXIDANT IN TOTAL OXIDANTS









               THERMODYNAMIC EQUILIBRIUM PROPERTIES AT ASSIGNED

                           TEMPERATURE AND PRESSURE

 CASE =                

             REACTANT                    WT FRACTION      ENERGY      TEMP
                                          (SEE NOTE)     KJ/KG-MOL      K  
 FUEL        H2                           1.0000000         0.000      0.000
 OXIDANT     H2                           1.0000000         0.000      0.000

 O/F=    1.00000  %FUEL= 50.000000  R,EQ.RATIO= 0.000000  PHI,EQ.RATIO=-1.000000

 THERMODYNAMIC PROPERTIES

 P, BAR           0.20000  0.20000  0.20000  0.20000  0.20000  0.20000  0.20000  0.20000
 T, K             7010.00  7020.00  7030.00  7040.00  7050.00  7060.00  7070.00  7080.00
 RHO, KG/CU M    3.4557-4 3.4507-4 3.4457-4 3.4407-4 3.4357-4 3.4308-4 3.4259-4 3.4210-4
 H, KJ/KG        356147.2 356382.5 356618.2 356854.4 357091.0 357328.0 357565.4 357803.4
 U, KJ/KG        298271.0 298422.5 298574.4 298726.7 298879.4 299032.6 299186.1 299340.1
 G, KJ/KG       -992801.7-994726.2-996651.0-998576.2-1000502.-1002427.-1004354.-1006280.
 S, KJ/(KG)(K)   192.4321 192.4656 192.4992 192.5327 192.5663 192.5999 192.6335 192.6672

 M, (1/n)           1.007    1.007    1.007    1.007    1.007    1.007    1.007    1.007
 (dLV/dLP)t      -1.00073 -1.00074 -1.00075 -1.00075 -1.00076 -1.00077 -1.00078 -1.00079
 (dLV/dLT)p        1.0149   1.0151   1.0153   1.0156   1.0158   1.0160   1.0162   1.0164
 Cp, KJ/(KG)(K)   23.5104  23.5521  23.5943  23.6371  23.6805  23.7244  23.7689  23.8140
 GAMMAs            1.5650   1.5638   1.5625   1.5613   1.5601   1.5588   1.5576   1.5563
 SON VEL,M/SEC     9517.1   9520.3   9523.4   9526.6   9529.6   9532.7   9535.7   9538.7

 TRANSPORT PROPERTIES (GASES ONLY)
   CONDUCTIVITY IN UNITS OF MILLIWATTS/(CM)(K)

 VISC,MILLIPOISE  0.72417  0.72500  0.72582  0.72664  0.72746  0.72827  0.72909  0.72990

  WITH EQUILIBRIUM REACTIONS

 Cp, KJ/(KG)(K)   23.5104  23.5521  23.5943  23.6371  23.6805  23.7244  23.7689  23.8140
 CONDUCTIVITY     23.2121  23.2467  23.2814  23.3162  23.3511  23.3861  23.4211  23.4563
 PRANDTL NUMBER    0.7335   0.7345   0.7356   0.7366   0.7377   0.7388   0.7399   0.7410

  WITH FROZEN REACTIONS

 Cp, KJ/(KG)(K)   20.6453  20.6459  20.6466  20.6473  20.6480  20.6487  20.6493  20.6500
 CONDUCTIVITY     22.5585  22.5866  22.6146  22.6425  22.6704  22.6982  22.7260  22.7538
 PRANDTL NUMBER    0.6628   0.6627   0.6627   0.6626   0.6626   0.6625   0.6625   0.6624

 MASS FRACTIONS

 *H               0.99854  0.99852  0.99851  0.99849  0.99848  0.99846  0.99844  0.99843
 *H+              0.00107  0.00109  0.00111  0.00113  0.00115  0.00117  0.00119  0.00121
 *H2              0.00039  0.00039  0.00038  0.00038  0.00037  0.00037  0.00036  0.00036

  * THERMODYNAMIC PROPERTIES FITTED TO 20000.K

 NOTE. WEIGHT FRACTION OF FUEL IN TOTAL FUELS AND OF OXIDANT IN TOTAL OXIDANTS









               THERMODYNAMIC EQUILIBRIUM PROPERTIES AT ASSIGNED

                           TEMPERATURE AND PRESSURE

 CASE =                

             REACTANT                    WT FRACTION      ENERGY      TEMP
                                          (SEE NOTE)     KJ/KG-MOL      K  
 FUEL        H2                           1.0000000         0.000      0.000
 OXIDANT     H2                           1.0000000         0.000      0.000

 O/F=    1.00000  %FUEL= 50.000000  R,EQ.RATIO= 0.000000  PHI,EQ.RATIO=-1.000000

 THERMODYNAMIC PROPERTIES

 P, BAR           0.20000  0.22500  0.22500  0.22500  0.22500  0.22500  0.22500  0.22500
 T, K             7090.00  6950.00  6960.00  6970.00  6980.00  6990.00  7000.00  7010.00
 RHO, KG/CU M    3.4160-4 3.9220-4 3.9163-4 3.9106-4 3.9049-4 3.8992-4 3.8936-4 3.8879-4
 H, KJ/KG        358041.7 354652.3 354883.9 355115.8 355348.2 355580.8 355813.9 356047.4
 U, KJ/KG        299494.5 297283.2 297431.1 297579.4 297728.1 297877.0 298026.4 298176.1
 G, KJ/KG       -1008207.-974504.4-976417.0-978330.0-980243.3-982156.9-984070.9-985985.1
 S, KJ/(KG)(K)   192.7008 191.2456 191.2789 191.3122 191.3455 191.3788 191.4121 191.4454

 M, (1/n)           1.007    1.007    1.007    1.007    1.007    1.007    1.007    1.007
 (dLV/dLP)t      -1.00079 -1.00069 -1.00069 -1.00070 -1.00071 -1.00071 -1.00072 -1.00072
 (dLV/dLT)p        1.0167   1.0133   1.0135   1.0136   1.0138   1.0140   1.0142   1.0144
 Cp, KJ/(KG)(K)   23.8597  23.1404  23.1764  23.2129  23.2498  23.2873  23.3254  23.3639
 GAMMAs            1.5550   1.5762   1.5751   1.5740   1.5729   1.5718   1.5706   1.5695
 SON VEL,M/SEC     9541.6   9509.4   9513.0   9516.5   9520.0   9523.5   9527.0   9530.4

 TRANSPORT PROPERTIES (GASES ONLY)
   CONDUCTIVITY IN UNITS OF MILLIWATTS/(CM)(K)

 VISC,MILLIPOISE  0.73071  0.71962  0.72046  0.72131  0.72215  0.72299  0.72383  0.72466

  WITH EQUILIBRIUM REACTIONS

 Cp, KJ/(KG)(K)   23.8597  23.1404  23.1764  23.2129  23.2498  23.2873  23.3254  23.3639
 CONDUCTIVITY     23.4915  23.0049  23.0385  23.0721  23.1058  23.1397  23.1736  23.2076
 PRANDTL NUMBER    0.7422   0.7239   0.7248   0.7257   0.7267   0.7276   0.7286   0.7295

  WITH FROZEN REACTIONS

 Cp, KJ/(KG)(K)   20.6507  20.6402  20.6408  20.6415  20.6421  20.6427  20.6434  20.6440
 CONDUCTIVITY     22.7815  22.3958  22.4243  22.4527  22.4811  22.5095  22.5378  22.5661
 PRANDTL NUMBER    0.6624   0.6632   0.6632   0.6631   0.6631   0.6630   0.6630   0.6629

 MASS FRACTIONS

 *H               0.99841  0.99862  0.99861  0.99860  0.99859  0.99858  0.99856  0.99855
 *H+              0.00123  0.00091  0.00092  0.00094  0.00096  0.00097  0.00099  0.00101
 *H2              0.00036  0.00047  0.00046  0.00046  0.00045  0.00045  0.00044  0.00044

  * THERMODYNAMIC PROPERTIES FITTED TO 20000.K

 NOTE. WEIGHT FRACTION OF FUEL IN TOTAL FUELS AND OF OXIDANT IN TOTAL OXIDANTS









               THERMODYNAMIC EQUILIBRIUM PROPERTIES AT ASSIGNED

                           TEMPERATURE AND PRESSURE

 CASE =                

             REACTANT                    WT FRACTION      ENERGY      TEMP
                                          (SEE NOTE)     KJ/KG-MOL      K  
 FUEL        H2                           1.0000000         0.000      0.000
 OXIDANT     H2                           1.0000000         0.000      0.000

 O/F=    1.00000  %FUEL= 50.000000  R,EQ.RATIO= 0.000000  PHI,EQ.RATIO=-1.000000

 THERMODYNAMIC PROPERTIES

 P, BAR           0.22500  0.22500  0.22500  0.22500  0.22500  0.22500  0.22500  0.22500
 T, K             7020.00  7030.00  7040.00  7050.00  7060.00  7070.00  7080.00  7090.00
 RHO, KG/CU M    3.8823-4 3.8767-4 3.8711-4 3.8656-4 3.8600-4 3.8545-4 3.8489-4 3.8434-4
 H, KJ/KG        356281.2 356515.4 356750.0 356985.1 357220.5 357456.4 357692.6 357929.3
 U, KJ/KG        298326.2 298476.6 298627.5 298778.7 298930.3 299082.3 299234.8 299387.6
 G, KJ/KG       -987899.8-989814.7-991730.0-993645.6-995561.6-997477.9-999394.5-1001311.
 S, KJ/(KG)(K)   191.4788 191.5121 191.5455 191.5788 191.6122 191.6456 191.6790 191.7124

 M, (1/n)           1.007    1.007    1.007    1.007    1.007    1.007    1.007    1.007
 (dLV/dLP)t      -1.00073 -1.00074 -1.00074 -1.00075 -1.00076 -1.00077 -1.00077 -1.00078
 (dLV/dLT)p        1.0146   1.0147   1.0149   1.0151   1.0153   1.0155   1.0157   1.0160
 Cp, KJ/(KG)(K)   23.4029  23.4425  23.4826  23.5233  23.5645  23.6062  23.6485  23.6913
 GAMMAs            1.5683   1.5671   1.5660   1.5648   1.5636   1.5624   1.5612   1.5599
 SON VEL,M/SEC     9533.7   9537.1   9540.3   9543.6   9546.8   9550.0   9553.2   9556.3

 TRANSPORT PROPERTIES (GASES ONLY)
   CONDUCTIVITY IN UNITS OF MILLIWATTS/(CM)(K)

 VISC,MILLIPOISE  0.72550  0.72633  0.72716  0.72798  0.72881  0.72963  0.73045  0.73127

  WITH EQUILIBRIUM REACTIONS

 Cp, KJ/(KG)(K)   23.4029  23.4425  23.4826  23.5233  23.5645  23.6062  23.6485  23.6913
 CONDUCTIVITY     23.2417  23.2759  23.3102  23.3446  23.3790  23.4136  23.4482  23.4830
 PRANDTL NUMBER    0.7305   0.7315   0.7325   0.7336   0.7346   0.7356   0.7367   0.7378

  WITH FROZEN REACTIONS

 Cp, KJ/(KG)(K)   20.6447  20.6453  20.6460  20.6466  20.6473  20.6480  20.6486  20.6493
 CONDUCTIVITY     22.5943  22.6225  22.6506  22.6787  22.7068  22.7348  22.7627  22.7906
 PRANDTL NUMBER    0.6629   0.6628   0.6628   0.6628   0.6627   0.6627   0.6626   0.6626

 MASS FRACTIONS

 *H               0.99854  0.99853  0.99851  0.99850  0.99848  0.99847  0.99845  0.99844
 *H+              0.00103  0.00105  0.00106  0.00108  0.00110  0.00112  0.00114  0.00116
 *H2              0.00043  0.00043  0.00042  0.00042  0.00041  0.00041  0.00041  0.00040

  * THERMODYNAMIC PROPERTIES FITTED TO 20000.K

 NOTE. WEIGHT FRACTION OF FUEL IN TOTAL FUELS AND OF OXIDANT IN TOTAL OXIDANTS









               THERMODYNAMIC EQUILIBRIUM PROPERTIES AT ASSIGNED

                           TEMPERATURE AND PRESSURE

 CASE =                

             REACTANT                    WT FRACTION      ENERGY      TEMP
                                          (SEE NOTE)     KJ/KG-MOL      K  
 FUEL        H2                           1.0000000         0.000      0.000
 OXIDANT     H2                           1.0000000         0.000      0.000

 O/F=    1.00000  %FUEL= 50.000000  R,EQ.RATIO= 0.000000  PHI,EQ.RATIO=-1.000000

 THERMODYNAMIC PROPERTIES

 P, BAR           0.25000  0.25000  0.25000  0.25000  0.25000  0.25000  0.25000  0.25000
 T, K             6950.00  6960.00  6970.00  6980.00  6990.00  7000.00  7010.00  7020.00
 RHO, KG/CU M    4.3581-4 4.3517-4 4.3454-4 4.3391-4 4.3328-4 4.3265-4 4.3203-4 4.3140-4
 H, KJ/KG        354573.1 354803.5 355034.4 355265.5 355497.1 355728.9 355961.2 356193.8
 U, KJ/KG        297208.1 297355.0 297502.2 297649.7 297797.6 297945.8 298094.3 298243.2
 G, KJ/KG       -968460.2-970364.0-972268.1-974172.6-976077.4-977982.6-979888.0-981793.8
 S, KJ/(KG)(K)   190.3645 190.3976 190.4308 190.4639 190.4971 190.5302 190.5634 190.5965

 M, (1/n)           1.007    1.007    1.007    1.007    1.007    1.007    1.007    1.007
 (dLV/dLP)t      -1.00069 -1.00070 -1.00070 -1.00071 -1.00071 -1.00072 -1.00072 -1.00073
 (dLV/dLT)p        1.0129   1.0131   1.0132   1.0134   1.0136   1.0137   1.0139   1.0141
 Cp, KJ/(KG)(K)   23.0315  23.0654  23.0997  23.1345  23.1698  23.2056  23.2419  23.2787
 GAMMAs            1.5798   1.5788   1.5777   1.5766   1.5755   1.5744   1.5733   1.5722
 SON VEL,M/SEC     9519.8   9523.5   9527.2   9530.9   9534.5   9538.1   9541.7   9545.2

 TRANSPORT PROPERTIES (GASES ONLY)
   CONDUCTIVITY IN UNITS OF MILLIWATTS/(CM)(K)

 VISC,MILLIPOISE  0.72000  0.72085  0.72170  0.72255  0.72340  0.72424  0.72508  0.72592

  WITH EQUILIBRIUM REACTIONS

 Cp, KJ/(KG)(K)   23.0315  23.0654  23.0997  23.1345  23.1698  23.2056  23.2419  23.2787
 CONDUCTIVITY     23.0066  23.0397  23.0728  23.1061  23.1394  23.1729  23.2064  23.2400
 PRANDTL NUMBER    0.7208   0.7217   0.7225   0.7234   0.7243   0.7253   0.7262   0.7271

  WITH FROZEN REACTIONS

 Cp, KJ/(KG)(K)   20.6393  20.6399  20.6405  20.6411  20.6417  20.6423  20.6430  20.6436
 CONDUCTIVITY     22.4014  22.4300  22.4586  22.4871  22.5156  22.5440  22.5725  22.6008
 PRANDTL NUMBER    0.6634   0.6633   0.6633   0.6632   0.6632   0.6631   0.6631   0.6631

 MASS FRACTIONS

 *H               0.99862  0.99861  0.99860  0.99859  0.99858  0.99857  0.99855  0.99854
 *H+              0.00086  0.00087  0.00089  0.00091  0.00092  0.00094  0.00096  0.00097
 *H2              0.00052  0.00052  0.00051  0.00050  0.00050  0.00049  0.00049  0.00048

  * THERMODYNAMIC PROPERTIES FITTED TO 20000.K

 NOTE. WEIGHT FRACTION OF FUEL IN TOTAL FUELS AND OF OXIDANT IN TOTAL OXIDANTS









               THERMODYNAMIC EQUILIBRIUM PROPERTIES AT ASSIGNED

                           TEMPERATURE AND PRESSURE

 CASE =                

             REACTANT                    WT FRACTION      ENERGY      TEMP
                                          (SEE NOTE)     KJ/KG-MOL      K  
 FUEL        H2                           1.0000000         0.000      0.000
 OXIDANT     H2                           1.0000000         0.000      0.000

 O/F=    1.00000  %FUEL= 50.000000  R,EQ.RATIO= 0.000000  PHI,EQ.RATIO=-1.000000

 THERMODYNAMIC PROPERTIES

 P, BAR           0.25000  0.25000  0.25000  0.25000  0.25000  0.25000  0.25000  0.28000
 T, K             7030.00  7040.00  7050.00  7060.00  7070.00  7080.00  7090.00  6950.00
 RHO, KG/CU M    4.3078-4 4.3016-4 4.2954-4 4.2892-4 4.2831-4 4.2769-4 4.2708-4 4.8814-4
 H, KJ/KG        356426.8 356660.1 356893.8 357127.9 357362.5 357597.4 357832.7 354490.2
 U, KJ/KG        298392.5 298542.1 298692.1 298842.4 298993.1 299144.2 299295.7 297129.7
 G, KJ/KG       -983700.0-985606.4-987513.2-989420.3-991327.8-993235.6-995143.7-961959.4
 S, KJ/(KG)(K)   190.6297 190.6629 190.6960 190.7292 190.7624 190.7956 190.8288 189.4172

 M, (1/n)           1.007    1.007    1.007    1.007    1.007    1.007    1.007    1.007
 (dLV/dLP)t      -1.00073 -1.00074 -1.00075 -1.00075 -1.00076 -1.00077 -1.00077 -1.00070
 (dLV/dLT)p        1.0143   1.0144   1.0146   1.0148   1.0150   1.0152   1.0154   1.0126
 Cp, KJ/(KG)(K)   23.3160  23.3538  23.3922  23.4310  23.4704  23.5103  23.5507  22.9231
 GAMMAs            1.5711   1.5700   1.5688   1.5677   1.5665   1.5653   1.5642   1.5834
 SON VEL,M/SEC     9548.6   9552.1   9555.5   9558.9   9562.2   9565.5   9568.8   9530.3

 TRANSPORT PROPERTIES (GASES ONLY)
   CONDUCTIVITY IN UNITS OF MILLIWATTS/(CM)(K)

 VISC,MILLIPOISE  0.72676  0.72760  0.72843  0.72926  0.73009  0.73092  0.73175  0.72039

  WITH EQUILIBRIUM REACTIONS

 Cp, KJ/(KG)(K)   23.3160  23.3538  23.3922  23.4310  23.4704  23.5103  23.5507  22.9231
 CONDUCTIVITY     23.2738  23.3076  23.3415  23.3755  23.4096  23.4438  23.4780  23.0118
 PRANDTL NUMBER    0.7281   0.7290   0.7300   0.7310   0.7320   0.7330   0.7340   0.7176

  WITH FROZEN REACTIONS

 Cp, KJ/(KG)(K)   20.6442  20.6448  20.6455  20.6461  20.6468  20.6474  20.6481  20.6383
 CONDUCTIVITY     22.6292  22.6575  22.6857  22.7139  22.7421  22.7702  22.7983  22.4070
 PRANDTL NUMBER    0.6630   0.6630   0.6629   0.6629   0.6628   0.6628   0.6627   0.6635

 MASS FRACTIONS

 *H               0.99853  0.99852  0.99851  0.99849  0.99848  0.99847  0.99845  0.99860
 *H+              0.00099  0.00101  0.00103  0.00105  0.00106  0.00108  0.00110  0.00081
 *H2              0.00048  0.00047  0.00047  0.00046  0.00046  0.00045  0.00045  0.00058

  * THERMODYNAMIC PROPERTIES FITTED TO 20000.K

 NOTE. WEIGHT FRACTION OF FUEL IN TOTAL FUELS AND OF OXIDANT IN TOTAL OXIDANTS









               THERMODYNAMIC EQUILIBRIUM PROPERTIES AT ASSIGNED

                           TEMPERATURE AND PRESSURE

 CASE =                

             REACTANT                    WT FRACTION      ENERGY      TEMP
                                          (SEE NOTE)     KJ/KG-MOL      K  
 FUEL        H2                           1.0000000         0.000      0.000
 OXIDANT     H2                           1.0000000         0.000      0.000

 O/F=    1.00000  %FUEL= 50.000000  R,EQ.RATIO= 0.000000  PHI,EQ.RATIO=-1.000000

 THERMODYNAMIC PROPERTIES

 P, BAR           0.28000  0.28000  0.28000  0.28000  0.28000  0.28000  0.28000  0.28000
 T, K             6960.00  6970.00  6980.00  6990.00  7000.00  7010.00  7020.00  7030.00
 RHO, KG/CU M    4.8743-4 4.8672-4 4.8602-4 4.8531-4 4.8461-4 4.8391-4 4.8321-4 4.8251-4
 H, KJ/KG        354719.6 354949.3 355179.3 355409.7 355640.3 355871.4 356102.8 356334.5
 U, KJ/KG        297275.6 297421.7 297568.1 297714.8 297861.9 298009.3 298157.0 298305.0
 G, KJ/KG       -963853.7-965748.4-967643.4-969538.7-971434.3-973330.3-975226.6-977123.3
 S, KJ/(KG)(K)   189.4502 189.4832 189.5161 189.5491 189.5821 189.6151 189.6481 189.6810

 M, (1/n)           1.007    1.007    1.007    1.007    1.007    1.007    1.007    1.007
 (dLV/dLP)t      -1.00070 -1.00071 -1.00071 -1.00072 -1.00072 -1.00073 -1.00073 -1.00074
 (dLV/dLT)p        1.0127   1.0129   1.0130   1.0132   1.0133   1.0135   1.0136   1.0138
 Cp, KJ/(KG)(K)   22.9548  22.9869  23.0195  23.0525  23.0860  23.1200  23.1545  23.1894
 GAMMAs            1.5824   1.5814   1.5804   1.5794   1.5783   1.5773   1.5762   1.5751
 SON VEL,M/SEC     9534.2   9538.1   9541.9   9545.7   9549.5   9553.2   9556.9   9560.5

 TRANSPORT PROPERTIES (GASES ONLY)
   CONDUCTIVITY IN UNITS OF MILLIWATTS/(CM)(K)

 VISC,MILLIPOISE  0.72125  0.72211  0.72296  0.72382  0.72467  0.72552  0.72637  0.72721

  WITH EQUILIBRIUM REACTIONS

 Cp, KJ/(KG)(K)   22.9548  22.9869  23.0195  23.0525  23.0860  23.1200  23.1545  23.1894
 CONDUCTIVITY     23.0443  23.0769  23.1096  23.1424  23.1753  23.2083  23.2414  23.2746
 PRANDTL NUMBER    0.7184   0.7193   0.7201   0.7210   0.7219   0.7228   0.7236   0.7245

  WITH FROZEN REACTIONS

 Cp, KJ/(KG)(K)   20.6389  20.6395  20.6401  20.6407  20.6413  20.6419  20.6425  20.6431
 CONDUCTIVITY     22.4358  22.4645  22.4931  22.5218  22.5504  22.5789  22.6074  22.6359
 PRANDTL NUMBER    0.6635   0.6634   0.6634   0.6634   0.6633   0.6633   0.6632   0.6632

 MASS FRACTIONS

 *H               0.99859  0.99859  0.99858  0.99857  0.99856  0.99855  0.99854  0.99853
 *H+              0.00083  0.00084  0.00086  0.00087  0.00089  0.00090  0.00092  0.00094
 *H2              0.00058  0.00057  0.00056  0.00056  0.00055  0.00055  0.00054  0.00053

  * THERMODYNAMIC PROPERTIES FITTED TO 20000.K

 NOTE. WEIGHT FRACTION OF FUEL IN TOTAL FUELS AND OF OXIDANT IN TOTAL OXIDANTS









               THERMODYNAMIC EQUILIBRIUM PROPERTIES AT ASSIGNED

                           TEMPERATURE AND PRESSURE

 CASE =                

             REACTANT                    WT FRACTION      ENERGY      TEMP
                                          (SEE NOTE)     KJ/KG-MOL      K  
 FUEL        H2                           1.0000000         0.000      0.000
 OXIDANT     H2                           1.0000000         0.000      0.000

 O/F=    1.00000  %FUEL= 50.000000  R,EQ.RATIO= 0.000000  PHI,EQ.RATIO=-1.000000

 THERMODYNAMIC PROPERTIES

 P, BAR           0.28000  0.28000  0.28000  0.28000  0.28000  0.28000  0.31000  0.31000
 T, K             7040.00  7050.00  7060.00  7070.00  7080.00  7090.00  6950.00  6960.00
 RHO, KG/CU M    4.8182-4 4.8113-4 4.8043-4 4.7975-4 4.7906-4 4.7837-4 5.4048-4 5.3969-4
 H, KJ/KG        356566.5 356799.0 357031.8 357264.9 357498.4 357732.3 354417.5 354646.0
 U, KJ/KG        298453.4 298602.1 298751.2 298900.6 299050.4 299200.5 297061.2 297206.1
 G, KJ/KG       -979020.3-980917.6-982815.2-984713.2-986611.5-988510.1-956121.3-958007.1
 S, KJ/(KG)(K)   189.7140 189.7470 189.7800 189.8130 189.8460 189.8790 188.5667 188.5996

 M, (1/n)           1.007    1.007    1.007    1.007    1.007    1.007    1.007    1.007
 (dLV/dLP)t      -1.00074 -1.00075 -1.00075 -1.00076 -1.00076 -1.00077 -1.00071 -1.00071
 (dLV/dLT)p        1.0140   1.0141   1.0143   1.0145   1.0147   1.0149   1.0123   1.0125
 Cp, KJ/(KG)(K)   23.2249  23.2608  23.2972  23.3342  23.3716  23.4095  22.8333  22.8631
 GAMMAs            1.5740   1.5729   1.5718   1.5707   1.5696   1.5685   1.5865   1.5856
 SON VEL,M/SEC     9564.1   9567.7   9571.2   9574.7   9578.2   9581.6   9539.2   9543.3

 TRANSPORT PROPERTIES (GASES ONLY)
   CONDUCTIVITY IN UNITS OF MILLIWATTS/(CM)(K)

 VISC,MILLIPOISE  0.72805  0.72890  0.72974  0.73057  0.73141  0.73224  0.72074  0.72160

  WITH EQUILIBRIUM REACTIONS

 Cp, KJ/(KG)(K)   23.2249  23.2608  23.2972  23.3342  23.3716  23.4095  22.8333  22.8631
 CONDUCTIVITY     23.3079  23.3413  23.3748  23.4084  23.4420  23.4758  23.0195  23.0515
 PRANDTL NUMBER    0.7255   0.7264   0.7273   0.7283   0.7292   0.7302   0.7149   0.7157

  WITH FROZEN REACTIONS

 Cp, KJ/(KG)(K)   20.6437  20.6443  20.6450  20.6456  20.6462  20.6468  20.6375  20.6381
 CONDUCTIVITY     22.6644  22.6928  22.7212  22.7495  22.7778  22.8060  22.4119  22.4407
 PRANDTL NUMBER    0.6631   0.6631   0.6631   0.6630   0.6630   0.6629   0.6637   0.6636

 MASS FRACTIONS

 *H               0.99852  0.99851  0.99850  0.99848  0.99847  0.99846  0.99858  0.99857
 *H+              0.00095  0.00097  0.00099  0.00101  0.00102  0.00104  0.00077  0.00079
 *H2              0.00053  0.00052  0.00052  0.00051  0.00050  0.00050  0.00065  0.00064

  * THERMODYNAMIC PROPERTIES FITTED TO 20000.K

 NOTE. WEIGHT FRACTION OF FUEL IN TOTAL FUELS AND OF OXIDANT IN TOTAL OXIDANTS









               THERMODYNAMIC EQUILIBRIUM PROPERTIES AT ASSIGNED

                           TEMPERATURE AND PRESSURE

 CASE =                

             REACTANT                    WT FRACTION      ENERGY      TEMP
                                          (SEE NOTE)     KJ/KG-MOL      K  
 FUEL        H2                           1.0000000         0.000      0.000
 OXIDANT     H2                           1.0000000         0.000      0.000

 O/F=    1.00000  %FUEL= 50.000000  R,EQ.RATIO= 0.000000  PHI,EQ.RATIO=-1.000000

 THERMODYNAMIC PROPERTIES

 P, BAR           0.31000  0.31000  0.31000  0.31000  0.31000  0.31000  0.31000  0.31000
 T, K             6970.00  6980.00  6990.00  7000.00  7010.00  7020.00  7030.00  7040.00
 RHO, KG/CU M    5.3891-4 5.3813-4 5.3735-4 5.3657-4 5.3580-4 5.3502-4 5.3425-4 5.3348-4
 H, KJ/KG        354874.7 355103.8 355333.2 355562.9 355792.9 356023.3 356254.0 356485.0
 U, KJ/KG        297351.3 297496.8 297642.6 297788.7 297935.1 298081.8 298228.9 298376.2
 G, KJ/KG       -959893.3-961779.7-963666.6-965553.7-967441.2-969329.0-971217.1-973105.6
 S, KJ/(KG)(K)   188.6324 188.6653 188.6981 188.7309 188.7638 188.7966 188.8295 188.8623

 M, (1/n)           1.007    1.007    1.007    1.007    1.007    1.007    1.007    1.007
 (dLV/dLP)t      -1.00072 -1.00072 -1.00072 -1.00073 -1.00073 -1.00074 -1.00074 -1.00075
 (dLV/dLT)p        1.0126   1.0127   1.0129   1.0130   1.0132   1.0133   1.0135   1.0136
 Cp, KJ/(KG)(K)   22.8933  22.9239  22.9550  22.9865  23.0185  23.0510  23.0839  23.1173
 GAMMAs            1.5846   1.5836   1.5826   1.5816   1.5806   1.5796   1.5786   1.5775
 SON VEL,M/SEC     9547.3   9551.3   9555.2   9559.1   9563.0   9566.8   9570.6   9574.3

 TRANSPORT PROPERTIES (GASES ONLY)
   CONDUCTIVITY IN UNITS OF MILLIWATTS/(CM)(K)

 VISC,MILLIPOISE  0.72246  0.72332  0.72418  0.72504  0.72589  0.72675  0.72760  0.72845

  WITH EQUILIBRIUM REACTIONS

 Cp, KJ/(KG)(K)   22.8933  22.9239  22.9550  22.9865  23.0185  23.0510  23.0839  23.1173
 CONDUCTIVITY     23.0836  23.1158  23.1481  23.1805  23.2130  23.2456  23.2784  23.3112
 PRANDTL NUMBER    0.7165   0.7173   0.7181   0.7190   0.7198   0.7207   0.7215   0.7224

  WITH FROZEN REACTIONS

 Cp, KJ/(KG)(K)   20.6386  20.6392  20.6398  20.6404  20.6410  20.6416  20.6422  20.6428
 CONDUCTIVITY     22.4695  22.4983  22.5270  22.5557  22.5844  22.6131  22.6417  22.6703
 PRANDTL NUMBER    0.6636   0.6636   0.6635   0.6635   0.6634   0.6634   0.6633   0.6633

 MASS FRACTIONS

 *H               0.99857  0.99856  0.99855  0.99854  0.99854  0.99853  0.99852  0.99851
 *H+              0.00080  0.00081  0.00083  0.00084  0.00086  0.00087  0.00089  0.00091
 *H2              0.00063  0.00063  0.00062  0.00061  0.00060  0.00060  0.00059  0.00058

  * THERMODYNAMIC PROPERTIES FITTED TO 20000.K

 NOTE. WEIGHT FRACTION OF FUEL IN TOTAL FUELS AND OF OXIDANT IN TOTAL OXIDANTS









               THERMODYNAMIC EQUILIBRIUM PROPERTIES AT ASSIGNED

                           TEMPERATURE AND PRESSURE

 CASE =                

             REACTANT                    WT FRACTION      ENERGY      TEMP
                                          (SEE NOTE)     KJ/KG-MOL      K  
 FUEL        H2                           1.0000000         0.000      0.000
 OXIDANT     H2                           1.0000000         0.000      0.000

 O/F=    1.00000  %FUEL= 50.000000  R,EQ.RATIO= 0.000000  PHI,EQ.RATIO=-1.000000

 THERMODYNAMIC PROPERTIES

 P, BAR           0.31000  0.31000  0.31000  0.31000  0.31000  0.35000  0.35000  0.35000
 T, K             7050.00  7060.00  7070.00  7080.00  7090.00  6950.00  6960.00  6970.00
 RHO, KG/CU M    5.3272-4 5.3195-4 5.3119-4 5.3043-4 5.2967-4 6.1027-4 6.0939-4 6.0850-4
 H, KJ/KG        356716.3 356948.0 357180.0 357412.4 357645.1 354332.5 354560.0 354787.8
 U, KJ/KG        298523.9 298671.9 298820.2 298968.9 299117.9 296981.2 297125.2 297269.4
 G, KJ/KG       -974994.4-976883.5-978772.9-980662.7-982552.8-949160.8-951036.4-952912.5
 S, KJ/(KG)(K)   188.8951 188.9280 188.9608 188.9937 189.0265 187.5530 187.5857 187.6184

 M, (1/n)           1.007    1.007    1.007    1.007    1.007    1.008    1.008    1.008
 (dLV/dLP)t      -1.00075 -1.00076 -1.00076 -1.00077 -1.00077 -1.00073 -1.00073 -1.00073
 (dLV/dLT)p        1.0138   1.0139   1.0141   1.0143   1.0144   1.0121   1.0122   1.0123
 Cp, KJ/(KG)(K)   23.1512  23.1855  23.2203  23.2556  23.2914  22.7355  22.7631  22.7910
 GAMMAs            1.5765   1.5754   1.5744   1.5733   1.5722   1.5900   1.5891   1.5881
 SON VEL,M/SEC     9578.0   9581.7   9585.4   9589.0   9592.5   9549.2   9553.4   9557.6

 TRANSPORT PROPERTIES (GASES ONLY)
   CONDUCTIVITY IN UNITS OF MILLIWATTS/(CM)(K)

 VISC,MILLIPOISE  0.72930  0.73014  0.73099  0.73183  0.73267  0.72113  0.72200  0.72287

  WITH EQUILIBRIUM REACTIONS

 Cp, KJ/(KG)(K)   23.1512  23.1855  23.2203  23.2556  23.2914  22.7355  22.7631  22.7910
 CONDUCTIVITY     23.3441  23.3771  23.4102  23.4433  23.4766  23.0329  23.0642  23.0957
 PRANDTL NUMBER    0.7233   0.7242   0.7251   0.7260   0.7269   0.7118   0.7126   0.7133

  WITH FROZEN REACTIONS

 Cp, KJ/(KG)(K)   20.6434  20.6440  20.6446  20.6452  20.6458  20.6366  20.6371  20.6377
 CONDUCTIVITY     22.6988  22.7273  22.7558  22.7842  22.8126  22.4174  22.4464  22.4753
 PRANDTL NUMBER    0.6633   0.6632   0.6632   0.6631   0.6631   0.6638   0.6638   0.6638

 MASS FRACTIONS

 *H               0.99850  0.99849  0.99848  0.99847  0.99846  0.99854  0.99854  0.99853
 *H+              0.00092  0.00094  0.00096  0.00097  0.00099  0.00073  0.00074  0.00075
 *H2              0.00058  0.00057  0.00056  0.00056  0.00055  0.00073  0.00072  0.00071

  * THERMODYNAMIC PROPERTIES FITTED TO 20000.K

 NOTE. WEIGHT FRACTION OF FUEL IN TOTAL FUELS AND OF OXIDANT IN TOTAL OXIDANTS









               THERMODYNAMIC EQUILIBRIUM PROPERTIES AT ASSIGNED

                           TEMPERATURE AND PRESSURE

 CASE =                

             REACTANT                    WT FRACTION      ENERGY      TEMP
                                          (SEE NOTE)     KJ/KG-MOL      K  
 FUEL        H2                           1.0000000         0.000      0.000
 OXIDANT     H2                           1.0000000         0.000      0.000

 O/F=    1.00000  %FUEL= 50.000000  R,EQ.RATIO= 0.000000  PHI,EQ.RATIO=-1.000000

 THERMODYNAMIC PROPERTIES

 P, BAR           0.35000  0.35000  0.35000  0.35000  0.35000  0.35000  0.35000  0.35000
 T, K             6980.00  6990.00  7000.00  7010.00  7020.00  7030.00  7040.00  7050.00
 RHO, KG/CU M    6.0762-4 6.0674-4 6.0586-4 6.0499-4 6.0411-4 6.0324-4 6.0237-4 6.0151-4
 H, KJ/KG        355015.8 355244.2 355472.8 355701.7 355930.9 356160.5 356390.3 356620.5
 U, KJ/KG        297413.9 297558.7 297703.8 297849.1 297994.7 298140.6 298286.9 298433.4
 G, KJ/KG       -954788.8-956665.5-958542.5-960419.8-962297.5-964175.5-966053.8-967932.4
 S, KJ/(KG)(K)   187.6511 187.6838 187.7165 187.7492 187.7818 187.8145 187.8472 187.8798

 M, (1/n)           1.008    1.008    1.007    1.007    1.007    1.007    1.007    1.007
 (dLV/dLP)t      -1.00074 -1.00074 -1.00074 -1.00075 -1.00075 -1.00075 -1.00076 -1.00076
 (dLV/dLT)p        1.0125   1.0126   1.0127   1.0128   1.0130   1.0131   1.0132   1.0134
 Cp, KJ/(KG)(K)   22.8194  22.8483  22.8776  22.9073  22.9374  22.9680  22.9990  23.0305
 GAMMAs            1.5872   1.5863   1.5853   1.5844   1.5834   1.5824   1.5815   1.5805
 SON VEL,M/SEC     9561.7   9565.8   9569.9   9573.9   9577.9   9581.9   9585.8   9589.7

 TRANSPORT PROPERTIES (GASES ONLY)
   CONDUCTIVITY IN UNITS OF MILLIWATTS/(CM)(K)

 VISC,MILLIPOISE  0.72374  0.72460  0.72547  0.72633  0.72719  0.72805  0.72890  0.72976

  WITH EQUILIBRIUM REACTIONS

 Cp, KJ/(KG)(K)   22.8194  22.8483  22.8776  22.9073  22.9374  22.9680  22.9990  23.0305
 CONDUCTIVITY     23.1273  23.1590  23.1907  23.2226  23.2546  23.2867  23.3189  23.3512
 PRANDTL NUMBER    0.7141   0.7149   0.7157   0.7165   0.7173   0.7181   0.7189   0.7197

  WITH FROZEN REACTIONS

 Cp, KJ/(KG)(K)   20.6383  20.6388  20.6394  20.6400  20.6405  20.6411  20.6417  20.6423
 CONDUCTIVITY     22.5042  22.5330  22.5619  22.5907  22.6195  22.6482  22.6769  22.7056
 PRANDTL NUMBER    0.6637   0.6637   0.6637   0.6636   0.6636   0.6635   0.6635   0.6634

 MASS FRACTIONS

 *H               0.99853  0.99852  0.99851  0.99851  0.99850  0.99849  0.99849  0.99848
 *H+              0.00077  0.00078  0.00079  0.00081  0.00082  0.00084  0.00085  0.00087
 *H2              0.00071  0.00070  0.00069  0.00068  0.00067  0.00067  0.00066  0.00065

  * THERMODYNAMIC PROPERTIES FITTED TO 20000.K

 NOTE. WEIGHT FRACTION OF FUEL IN TOTAL FUELS AND OF OXIDANT IN TOTAL OXIDANTS









               THERMODYNAMIC EQUILIBRIUM PROPERTIES AT ASSIGNED

                           TEMPERATURE AND PRESSURE

 CASE =                

             REACTANT                    WT FRACTION      ENERGY      TEMP
                                          (SEE NOTE)     KJ/KG-MOL      K  
 FUEL        H2                           1.0000000         0.000      0.000
 OXIDANT     H2                           1.0000000         0.000      0.000

 O/F=    1.00000  %FUEL= 50.000000  R,EQ.RATIO= 0.000000  PHI,EQ.RATIO=-1.000000

 THERMODYNAMIC PROPERTIES

 P, BAR           0.35000  0.35000  0.35000  0.35000  0.39000  0.39000  0.39000  0.39000
 T, K             7060.00  7070.00  7080.00  7090.00  6950.00  6960.00  6970.00  6980.00
 RHO, KG/CU M    6.0064-4 5.9978-4 5.9892-4 5.9807-4 6.8007-4 6.7908-4 6.7810-4 6.7712-4
 H, KJ/KG        356850.9 357081.7 357312.8 357544.3 354258.0 354484.7 354711.6 354938.8
 U, KJ/KG        298580.2 298727.3 298874.8 299022.5 296911.2 297054.4 297197.9 297341.6
 G, KJ/KG       -969811.4-971690.6-973570.3-975450.2-942954.8-944821.5-946688.4-948555.8
 S, KJ/(KG)(K)   187.9125 187.9452 187.9778 188.0105 186.6493 186.6819 186.7145 186.7471

 M, (1/n)           1.007    1.007    1.007    1.007    1.008    1.008    1.008    1.008
 (dLV/dLP)t      -1.00076 -1.00077 -1.00077 -1.00078 -1.00075 -1.00075 -1.00075 -1.00076
 (dLV/dLT)p        1.0135   1.0137   1.0138   1.0140   1.0119   1.0121   1.0122   1.0123
 Cp, KJ/(KG)(K)   23.0625  23.0948  23.1277  23.1610  22.6567  22.6823  22.7084  22.7348
 GAMMAs            1.5795   1.5784   1.5774   1.5764   1.5928   1.5920   1.5911   1.5902
 SON VEL,M/SEC     9593.5   9597.4   9601.1   9604.9   9557.4   9561.8   9566.1   9570.4

 TRANSPORT PROPERTIES (GASES ONLY)
   CONDUCTIVITY IN UNITS OF MILLIWATTS/(CM)(K)

 VISC,MILLIPOISE  0.73061  0.73147  0.73231  0.73316  0.72148  0.72235  0.72323  0.72410

  WITH EQUILIBRIUM REACTIONS

 Cp, KJ/(KG)(K)   23.0625  23.0948  23.1277  23.1610  22.6567  22.6823  22.7084  22.7348
 CONDUCTIVITY     23.3836  23.4161  23.4487  23.4814  23.0489  23.0797  23.1106  23.1415
 PRANDTL NUMBER    0.7206   0.7214   0.7223   0.7232   0.7092   0.7099   0.7106   0.7114

  WITH FROZEN REACTIONS

 Cp, KJ/(KG)(K)   20.6428  20.6434  20.6440  20.6446  20.6358  20.6364  20.6369  20.6374
 CONDUCTIVITY     22.7343  22.7629  22.7915  22.8200  22.4221  22.4512  22.4802  22.5092
 PRANDTL NUMBER    0.6634   0.6634   0.6633   0.6633   0.6640   0.6640   0.6639   0.6639

 MASS FRACTIONS

 *H               0.99847  0.99846  0.99845  0.99844  0.99850  0.99849  0.99849  0.99849
 *H+              0.00088  0.00090  0.00092  0.00093  0.00069  0.00070  0.00071  0.00073
 *H2              0.00064  0.00064  0.00063  0.00062  0.00081  0.00081  0.00080  0.00079

  * THERMODYNAMIC PROPERTIES FITTED TO 20000.K

 NOTE. WEIGHT FRACTION OF FUEL IN TOTAL FUELS AND OF OXIDANT IN TOTAL OXIDANTS









               THERMODYNAMIC EQUILIBRIUM PROPERTIES AT ASSIGNED

                           TEMPERATURE AND PRESSURE

 CASE =                

             REACTANT                    WT FRACTION      ENERGY      TEMP
                                          (SEE NOTE)     KJ/KG-MOL      K  
 FUEL        H2                           1.0000000         0.000      0.000
 OXIDANT     H2                           1.0000000         0.000      0.000

 O/F=    1.00000  %FUEL= 50.000000  R,EQ.RATIO= 0.000000  PHI,EQ.RATIO=-1.000000

 THERMODYNAMIC PROPERTIES

 P, BAR           0.39000  0.39000  0.39000  0.39000  0.39000  0.39000  0.39000  0.39000
 T, K             6990.00  7000.00  7010.00  7020.00  7030.00  7040.00  7050.00  7060.00
 RHO, KG/CU M    6.7613-4 6.7516-4 6.7418-4 6.7321-4 6.7224-4 6.7127-4 6.7031-4 6.6935-4
 H, KJ/KG        355166.3 355394.1 355622.1 355850.4 356079.0 356307.9 356537.0 356766.5
 U, KJ/KG        297485.5 297629.7 297774.2 297918.9 298063.9 298209.2 298354.8 298500.6
 G, KJ/KG       -950423.4-952291.3-954159.6-956028.2-957897.2-959766.4-961636.0-963505.9
 S, KJ/(KG)(K)   186.7796 186.8122 186.8448 186.8773 186.9098 186.9424 186.9749 187.0074

 M, (1/n)           1.008    1.008    1.008    1.008    1.008    1.007    1.007    1.007
 (dLV/dLP)t      -1.00076 -1.00076 -1.00076 -1.00077 -1.00077 -1.00077 -1.00077 -1.00078
 (dLV/dLT)p        1.0124   1.0125   1.0126   1.0127   1.0129   1.0130   1.0131   1.0132
 Cp, KJ/(KG)(K)   22.7617  22.7890  22.8168  22.8449  22.8735  22.9025  22.9320  22.9618
 GAMMAs            1.5893   1.5884   1.5875   1.5866   1.5857   1.5848   1.5838   1.5829
 SON VEL,M/SEC     9574.7   9578.9   9583.1   9587.2   9591.3   9595.4   9599.5   9603.5

 TRANSPORT PROPERTIES (GASES ONLY)
   CONDUCTIVITY IN UNITS OF MILLIWATTS/(CM)(K)

 VISC,MILLIPOISE  0.72497  0.72584  0.72670  0.72757  0.72843  0.72930  0.73016  0.73102

  WITH EQUILIBRIUM REACTIONS

 Cp, KJ/(KG)(K)   22.7617  22.7890  22.8168  22.8449  22.8735  22.9025  22.9320  22.9618
 CONDUCTIVITY     23.1726  23.2038  23.2351  23.2666  23.2981  23.3297  23.3614  23.3933
 PRANDTL NUMBER    0.7121   0.7129   0.7136   0.7144   0.7152   0.7159   0.7167   0.7175

  WITH FROZEN REACTIONS

 Cp, KJ/(KG)(K)   20.6380  20.6385  20.6391  20.6397  20.6402  20.6408  20.6413  20.6419
 CONDUCTIVITY     22.5381  22.5671  22.5960  22.6249  22.6537  22.6826  22.7114  22.7401
 PRANDTL NUMBER    0.6638   0.6638   0.6638   0.6637   0.6637   0.6636   0.6636   0.6636

 MASS FRACTIONS

 *H               0.99848  0.99848  0.99847  0.99847  0.99846  0.99846  0.99845  0.99844
 *H+              0.00074  0.00075  0.00077  0.00078  0.00079  0.00081  0.00082  0.00084
 *H2              0.00078  0.00077  0.00076  0.00075  0.00074  0.00073  0.00073  0.00072

  * THERMODYNAMIC PROPERTIES FITTED TO 20000.K

 NOTE. WEIGHT FRACTION OF FUEL IN TOTAL FUELS AND OF OXIDANT IN TOTAL OXIDANTS









               THERMODYNAMIC EQUILIBRIUM PROPERTIES AT ASSIGNED

                           TEMPERATURE AND PRESSURE

 CASE =                

             REACTANT                    WT FRACTION      ENERGY      TEMP
                                          (SEE NOTE)     KJ/KG-MOL      K  
 FUEL        H2                           1.0000000         0.000      0.000
 OXIDANT     H2                           1.0000000         0.000      0.000

 O/F=    1.00000  %FUEL= 50.000000  R,EQ.RATIO= 0.000000  PHI,EQ.RATIO=-1.000000

 THERMODYNAMIC PROPERTIES

 P, BAR           0.39000  0.39000  0.39000  0.44000  0.44000  0.44000  0.44000  0.44000
 T, K             7070.00  7080.00  7090.00  6950.00  6960.00  6970.00  6980.00  6990.00
 RHO, KG/CU M    6.6839-4 6.6743-4 6.6648-4 7.6733-4 7.6622-4 7.6511-4 7.6400-4 7.6289-4
 H, KJ/KG        356996.3 357226.4 357456.7 354175.7 354401.6 354627.7 354854.1 355080.7
 U, KJ/KG        298646.8 298793.2 298939.9 296834.3 296976.7 297119.3 297262.2 297405.3
 G, KJ/KG       -965376.2-967246.7-969117.6-936037.5-937894.1-939751.0-941608.2-943465.8
 S, KJ/(KG)(K)   187.0400 187.0725 187.1050 185.6422 185.6747 185.7071 185.7396 185.7720

 M, (1/n)           1.007    1.007    1.007    1.008    1.008    1.008    1.008    1.008
 (dLV/dLP)t      -1.00078 -1.00079 -1.00079 -1.00078 -1.00078 -1.00078 -1.00079 -1.00079
 (dLV/dLT)p        1.0134   1.0135   1.0137   1.0119   1.0119   1.0120   1.0121   1.0122
 Cp, KJ/(KG)(K)   22.9922  23.0229  23.0541  22.5780  22.6016  22.6256  22.6500  22.6748
 GAMMAs            1.5819   1.5809   1.5799   1.5958   1.5950   1.5942   1.5934   1.5925
 SON VEL,M/SEC     9607.4   9611.3   9615.2   9565.9   9570.4   9574.9   9579.4   9583.8

 TRANSPORT PROPERTIES (GASES ONLY)
   CONDUCTIVITY IN UNITS OF MILLIWATTS/(CM)(K)

 VISC,MILLIPOISE  0.73188  0.73273  0.73359  0.72185  0.72273  0.72361  0.72449  0.72536

  WITH EQUILIBRIUM REACTIONS

 Cp, KJ/(KG)(K)   22.9922  23.0229  23.0541  22.5780  22.6016  22.6256  22.6500  22.6748
 CONDUCTIVITY     23.4252  23.4573  23.4894  23.0718  23.1019  23.1320  23.1623  23.1927
 PRANDTL NUMBER    0.7183   0.7192   0.7200   0.7064   0.7071   0.7078   0.7085   0.7092

  WITH FROZEN REACTIONS

 Cp, KJ/(KG)(K)   20.6425  20.6431  20.6436  20.6350  20.6355  20.6361  20.6366  20.6371
 CONDUCTIVITY     22.7689  22.7976  22.8263  22.4272  22.4564  22.4855  22.5146  22.5436
 PRANDTL NUMBER    0.6635   0.6635   0.6634   0.6642   0.6641   0.6641   0.6641   0.6640

 MASS FRACTIONS

 *H               0.99844  0.99843  0.99842  0.99843  0.99843  0.99843  0.99843  0.99843
 *H+              0.00085  0.00087  0.00088  0.00065  0.00066  0.00067  0.00068  0.00070
 *H2              0.00071  0.00070  0.00069  0.00092  0.00091  0.00090  0.00089  0.00088

  * THERMODYNAMIC PROPERTIES FITTED TO 20000.K

 NOTE. WEIGHT FRACTION OF FUEL IN TOTAL FUELS AND OF OXIDANT IN TOTAL OXIDANTS









               THERMODYNAMIC EQUILIBRIUM PROPERTIES AT ASSIGNED

                           TEMPERATURE AND PRESSURE

 CASE =                

             REACTANT                    WT FRACTION      ENERGY      TEMP
                                          (SEE NOTE)     KJ/KG-MOL      K  
 FUEL        H2                           1.0000000         0.000      0.000
 OXIDANT     H2                           1.0000000         0.000      0.000

 O/F=    1.00000  %FUEL= 50.000000  R,EQ.RATIO= 0.000000  PHI,EQ.RATIO=-1.000000

 THERMODYNAMIC PROPERTIES

 P, BAR           0.44000  0.44000  0.44000  0.44000  0.44000  0.44000  0.44000  0.44000
 T, K             7000.00  7010.00  7020.00  7030.00  7040.00  7050.00  7060.00  7070.00
 RHO, KG/CU M    7.6179-4 7.6069-4 7.5959-4 7.5850-4 7.5740-4 7.5632-4 7.5523-4 7.5415-4
 H, KJ/KG        355307.6 355534.7 355762.1 355989.7 356217.7 356445.8 356674.3 356903.0
 U, KJ/KG        297548.6 297692.2 297836.1 297980.1 298124.5 298269.1 298414.0 298559.1
 G, KJ/KG       -945323.7-947181.9-949040.4-950899.3-952758.4-954618.0-956477.8-958337.9
 S, KJ/(KG)(K)   185.8045 185.8369 185.8693 185.9017 185.9341 185.9665 185.9989 186.0313

 M, (1/n)           1.008    1.008    1.008    1.008    1.008    1.008    1.008    1.008
 (dLV/dLP)t      -1.00079 -1.00079 -1.00079 -1.00079 -1.00080 -1.00080 -1.00080 -1.00080
 (dLV/dLT)p        1.0123   1.0124   1.0125   1.0127   1.0128   1.0129   1.0130   1.0131
 Cp, KJ/(KG)(K)   22.6999  22.7255  22.7515  22.7780  22.8048  22.8320  22.8597  22.8877
 GAMMAs            1.5917   1.5908   1.5900   1.5891   1.5882   1.5873   1.5864   1.5855
 SON VEL,M/SEC     9588.2   9592.5   9596.9   9601.1   9605.4   9609.6   9613.8   9617.9

 TRANSPORT PROPERTIES (GASES ONLY)
   CONDUCTIVITY IN UNITS OF MILLIWATTS/(CM)(K)

 VISC,MILLIPOISE  0.72624  0.72711  0.72798  0.72885  0.72972  0.73059  0.73146  0.73232

  WITH EQUILIBRIUM REACTIONS

 Cp, KJ/(KG)(K)   22.6999  22.7255  22.7515  22.7780  22.8048  22.8320  22.8597  22.8877
 CONDUCTIVITY     23.2232  23.2538  23.2846  23.3154  23.3464  23.3774  23.4086  23.4399
 PRANDTL NUMBER    0.7099   0.7106   0.7113   0.7121   0.7128   0.7135   0.7143   0.7151

  WITH FROZEN REACTIONS

 Cp, KJ/(KG)(K)   20.6377  20.6382  20.6387  20.6393  20.6398  20.6404  20.6409  20.6415
 CONDUCTIVITY     22.5727  22.6017  22.6307  22.6596  22.6886  22.7175  22.7464  22.7753
 PRANDTL NUMBER    0.6640   0.6639   0.6639   0.6639   0.6638   0.6638   0.6637   0.6637

 MASS FRACTIONS

 *H               0.99842  0.99842  0.99842  0.99841  0.99841  0.99841  0.99840  0.99840
 *H+              0.00071  0.00072  0.00073  0.00075  0.00076  0.00077  0.00079  0.00080
 *H2              0.00087  0.00086  0.00085  0.00084  0.00083  0.00082  0.00081  0.00080

  * THERMODYNAMIC PROPERTIES FITTED TO 20000.K

 NOTE. WEIGHT FRACTION OF FUEL IN TOTAL FUELS AND OF OXIDANT IN TOTAL OXIDANTS









               THERMODYNAMIC EQUILIBRIUM PROPERTIES AT ASSIGNED

                           TEMPERATURE AND PRESSURE

 CASE =                

             REACTANT                    WT FRACTION      ENERGY      TEMP
                                          (SEE NOTE)     KJ/KG-MOL      K  
 FUEL        H2                           1.0000000         0.000      0.000
 OXIDANT     H2                           1.0000000         0.000      0.000

 O/F=    1.00000  %FUEL= 50.000000  R,EQ.RATIO= 0.000000  PHI,EQ.RATIO=-1.000000

 THERMODYNAMIC PROPERTIES

 P, BAR           0.44000  0.44000  0.49000  0.49000  0.49000  0.49000  0.49000  0.49000
 T, K             7080.00  7090.00  6950.00  6960.00  6970.00  6980.00  6990.00  7000.00
 RHO, KG/CU M    7.5307-4 7.5199-4 8.5460-4 8.5336-4 8.5212-4 8.5089-4 8.4966-4 8.4843-4
 H, KJ/KG        357132.1 357361.4 354102.6 354327.8 354553.3 354779.0 355005.0 355231.1
 U, KJ/KG        298704.5 298850.2 296766.1 296907.9 297049.9 297192.1 297334.5 297477.2
 G, KJ/KG       -960198.4-962059.2-929866.1-931713.7-933561.6-935409.8-937258.4-939107.3
 S, KJ/(KG)(K)   186.0636 186.0960 184.7437 184.7761 184.8085 184.8408 184.8732 184.9055

 M, (1/n)           1.008    1.007    1.008    1.008    1.008    1.008    1.008    1.008
 (dLV/dLP)t      -1.00080 -1.00081 -1.00082 -1.00082 -1.00082 -1.00082 -1.00082 -1.00082
 (dLV/dLT)p        1.0132   1.0134   1.0118   1.0119   1.0120   1.0121   1.0122   1.0123
 Cp, KJ/(KG)(K)   22.9162  22.9452  22.5161  22.5379  22.5601  22.5826  22.6056  22.6289
 GAMMAs            1.5846   1.5836   1.5982   1.5975   1.5967   1.5959   1.5951   1.5943
 SON VEL,M/SEC     9622.0   9626.1   9572.8   9577.4   9582.1   9586.7   9591.3   9595.8

 TRANSPORT PROPERTIES (GASES ONLY)
   CONDUCTIVITY IN UNITS OF MILLIWATTS/(CM)(K)

 VISC,MILLIPOISE  0.73318  0.73404  0.72218  0.72306  0.72395  0.72483  0.72571  0.72659

  WITH EQUILIBRIUM REACTIONS

 Cp, KJ/(KG)(K)   22.9162  22.9452  22.5161  22.5379  22.5601  22.5826  22.6056  22.6289
 CONDUCTIVITY     23.4713  23.5028  23.0971  23.1265  23.1559  23.1856  23.2153  23.2451
 PRANDTL NUMBER    0.7158   0.7166   0.7040   0.7047   0.7053   0.7060   0.7066   0.7073

  WITH FROZEN REACTIONS

 Cp, KJ/(KG)(K)   20.6420  20.6426  20.6344  20.6349  20.6354  20.6359  20.6364  20.6369
 CONDUCTIVITY     22.8041  22.8329  22.4317  22.4609  22.4901  22.5192  22.5484  22.5775
 PRANDTL NUMBER    0.6637   0.6636   0.6643   0.6643   0.6642   0.6642   0.6642   0.6641

 MASS FRACTIONS

 *H               0.99839  0.99838  0.99836  0.99836  0.99836  0.99836  0.99836  0.99836
 *H+              0.00082  0.00083  0.00061  0.00062  0.00064  0.00065  0.00066  0.00067
 *H2              0.00079  0.00078  0.00102  0.00101  0.00100  0.00099  0.00098  0.00097

  * THERMODYNAMIC PROPERTIES FITTED TO 20000.K

 NOTE. WEIGHT FRACTION OF FUEL IN TOTAL FUELS AND OF OXIDANT IN TOTAL OXIDANTS









               THERMODYNAMIC EQUILIBRIUM PROPERTIES AT ASSIGNED

                           TEMPERATURE AND PRESSURE

 CASE =                

             REACTANT                    WT FRACTION      ENERGY      TEMP
                                          (SEE NOTE)     KJ/KG-MOL      K  
 FUEL        H2                           1.0000000         0.000      0.000
 OXIDANT     H2                           1.0000000         0.000      0.000

 O/F=    1.00000  %FUEL= 50.000000  R,EQ.RATIO= 0.000000  PHI,EQ.RATIO=-1.000000

 THERMODYNAMIC PROPERTIES

 P, BAR           0.49000  0.49000  0.49000  0.49000  0.49000  0.49000  0.49000  0.49000
 T, K             7010.00  7020.00  7030.00  7040.00  7050.00  7060.00  7070.00  7080.00
 RHO, KG/CU M    8.4720-4 8.4598-4 8.4476-4 8.4355-4 8.4233-4 8.4113-4 8.3992-4 8.3872-4
 H, KJ/KG        355457.5 355684.2 355911.1 356138.2 356365.6 356593.3 356821.2 357049.3
 U, KJ/KG        297620.1 297763.2 297906.5 298050.1 298193.9 298338.0 298482.3 298626.9
 G, KJ/KG       -940956.5-942806.1-944655.9-946506.1-948356.6-950207.5-952058.6-953910.1
 S, KJ/(KG)(K)   184.9378 184.9701 185.0024 185.0347 185.0670 185.0993 185.1315 185.1638

 M, (1/n)           1.008    1.008    1.008    1.008    1.008    1.008    1.008    1.008
 (dLV/dLP)t      -1.00082 -1.00082 -1.00082 -1.00082 -1.00082 -1.00083 -1.00083 -1.00083
 (dLV/dLT)p        1.0124   1.0125   1.0125   1.0126   1.0128   1.0129   1.0130   1.0131
 Cp, KJ/(KG)(K)   22.6526  22.6768  22.7013  22.7262  22.7515  22.7773  22.8034  22.8300
 GAMMAs            1.5935   1.5927   1.5919   1.5911   1.5902   1.5894   1.5885   1.5876
 SON VEL,M/SEC     9600.3   9604.8   9609.2   9613.6   9618.0   9622.3   9626.6   9630.8

 TRANSPORT PROPERTIES (GASES ONLY)
   CONDUCTIVITY IN UNITS OF MILLIWATTS/(CM)(K)

 VISC,MILLIPOISE  0.72747  0.72834  0.72922  0.73009  0.73096  0.73184  0.73270  0.73357

  WITH EQUILIBRIUM REACTIONS

 Cp, KJ/(KG)(K)   22.6526  22.6768  22.7013  22.7262  22.7515  22.7773  22.8034  22.8300
 CONDUCTIVITY     23.2751  23.3052  23.3354  23.3657  23.3961  23.4267  23.4573  23.4881
 PRANDTL NUMBER    0.7080   0.7087   0.7094   0.7101   0.7108   0.7115   0.7123   0.7130

  WITH FROZEN REACTIONS

 Cp, KJ/(KG)(K)   20.6375  20.6380  20.6385  20.6390  20.6396  20.6401  20.6406  20.6412
 CONDUCTIVITY     22.6066  22.6357  22.6647  22.6938  22.7228  22.7518  22.7807  22.8097
 PRANDTL NUMBER    0.6641   0.6641   0.6640   0.6640   0.6640   0.6639   0.6639   0.6638

 MASS FRACTIONS

 *H               0.99836  0.99836  0.99836  0.99836  0.99835  0.99835  0.99835  0.99834
 *H+              0.00068  0.00070  0.00071  0.00072  0.00073  0.00075  0.00076  0.00077
 *H2              0.00096  0.00094  0.00093  0.00092  0.00091  0.00090  0.00089  0.00088

  * THERMODYNAMIC PROPERTIES FITTED TO 20000.K

 NOTE. WEIGHT FRACTION OF FUEL IN TOTAL FUELS AND OF OXIDANT IN TOTAL OXIDANTS









               THERMODYNAMIC EQUILIBRIUM PROPERTIES AT ASSIGNED

                           TEMPERATURE AND PRESSURE

 CASE =                

             REACTANT                    WT FRACTION      ENERGY      TEMP
                                          (SEE NOTE)     KJ/KG-MOL      K  
 FUEL        H2                           1.0000000         0.000      0.000
 OXIDANT     H2                           1.0000000         0.000      0.000

 O/F=    1.00000  %FUEL= 50.000000  R,EQ.RATIO= 0.000000  PHI,EQ.RATIO=-1.000000

 THERMODYNAMIC PROPERTIES

 P, BAR           0.49000
 T, K             7090.00
 RHO, KG/CU M    8.3752-4
 H, KJ/KG        357277.8
 U, KJ/KG        298771.7
 G, KJ/KG       -955761.9
 S, KJ/(KG)(K)   185.1960

 M, (1/n)           1.008
 (dLV/dLP)t      -1.00083
 (dLV/dLT)p        1.0132
 Cp, KJ/(KG)(K)   22.8569
 GAMMAs            1.5867
 SON VEL,M/SEC     9635.0

 TRANSPORT PROPERTIES (GASES ONLY)
   CONDUCTIVITY IN UNITS OF MILLIWATTS/(CM)(K)

 VISC,MILLIPOISE  0.73444

  WITH EQUILIBRIUM REACTIONS

 Cp, KJ/(KG)(K)   22.8569
 CONDUCTIVITY     23.5190
 PRANDTL NUMBER    0.7138

  WITH FROZEN REACTIONS

 Cp, KJ/(KG)(K)   20.6417
 CONDUCTIVITY     22.8386
 PRANDTL NUMBER    0.6638

 MASS FRACTIONS

 *H               0.99834
 *H+              0.00079
 *H2              0.00087

  * THERMODYNAMIC PROPERTIES FITTED TO 20000.K

 NOTE. WEIGHT FRACTION OF FUEL IN TOTAL FUELS AND OF OXIDANT IN TOTAL OXIDANTS



  
