
 *******************************************************************************

         NASA-GLENN CHEMICAL EQUILIBRIUM PROGRAM CEA2, MAY 21, 2004
                   BY  BONNIE MCBRIDE AND SANFORD GORDON
      REFS: NASA RP-1311, PART I, 1994 AND NASA RP-1311, PART II, 1996

 *******************************************************************************



  prob tp ions
  p,bar= 60.0,67.0,74.0,82.5,91.0,100.0,110.0,120.0,132.0,148.0,165.0,180.0,200.0
 ,225.0,250.0
  t,k= 600,605,610,615,620,625,630,635,640,645,650,655,660,665,670
  
  
  reac
  fuel H2                wt%=100.0000
  oxid H2                wt%=100.0000
  
  output short
  
  output massf
  
  output siunits
  
  output transport
  
 end





               THERMODYNAMIC EQUILIBRIUM PROPERTIES AT ASSIGNED

                           TEMPERATURE AND PRESSURE

 CASE =                

             REACTANT                    WT FRACTION      ENERGY      TEMP
                                          (SEE NOTE)     KJ/KG-MOL      K  
 FUEL        H2                           1.0000000         0.000      0.000
 OXIDANT     H2                           1.0000000         0.000      0.000

 O/F=    1.00000  %FUEL= 50.000000  R,EQ.RATIO= 0.000000  PHI,EQ.RATIO=-1.000000

 THERMODYNAMIC PROPERTIES

 P, BAR            60.000   60.000   60.000   60.000   60.000   60.000   60.000   60.000
 T, K              600.00   605.00   610.00   615.00   620.00   625.00   630.00   635.00
 RHO, KG/CU M    2.4245 0 2.4045 0 2.3848 0 2.3654 0 2.3463 0 2.3276 0 2.3091 0 2.2909 0
 H, KJ/KG         4370.65  4443.37  4516.11  4588.85  4661.62  4734.39  4807.18  4879.98
 U, KJ/KG         1895.95  1948.05  2000.17  2052.29  2104.43  2156.58  2208.75  2260.93
 G, KJ/KG        -30463.7 -30754.2 -31045.4 -31337.2 -31629.5 -31922.5 -32216.0 -32510.2
 S, KJ/(KG)(K)    58.0572  58.1778  58.2975  58.4163  58.5341  58.6510  58.7670  58.8821

 M, (1/n)           2.016    2.016    2.016    2.016    2.016    2.016    2.016    2.016
 (dLV/dLP)t      -1.00000 -1.00000 -1.00000 -1.00000 -1.00000 -1.00000 -1.00000 -1.00000
 (dLV/dLT)p        1.0000   1.0000   1.0000   1.0000   1.0000   1.0000   1.0000   1.0000
 Cp, KJ/(KG)(K)   14.5436  14.5460  14.5484  14.5509  14.5535  14.5562  14.5590  14.5618
 GAMMAs            1.3959   1.3958   1.3957   1.3956   1.3955   1.3954   1.3953   1.3952
 SON VEL,M/SEC     1858.6   1866.3   1873.9   1881.5   1889.1   1896.6   1904.1   1911.6

 TRANSPORT PROPERTIES (GASES ONLY)
   CONDUCTIVITY IN UNITS OF MILLIWATTS/(CM)(K)

 VISC,MILLIPOISE  0.14376  0.14460  0.14542  0.14625  0.14707  0.14789  0.14871  0.14952

  WITH EQUILIBRIUM REACTIONS

 Cp, KJ/(KG)(K)   14.5436  14.5460  14.5484  14.5509  14.5535  14.5562  14.5590  14.5618
 CONDUCTIVITY      3.0336   3.0518   3.0698   3.0876   3.1054   3.1232   3.1410   3.1587
 PRANDTL NUMBER    0.6892   0.6892   0.6892   0.6892   0.6892   0.6893   0.6893   0.6893

  WITH FROZEN REACTIONS

 Cp, KJ/(KG)(K)   14.5436  14.5460  14.5484  14.5509  14.5535  14.5562  14.5590  14.5618
 CONDUCTIVITY      3.0336   3.0518   3.0698   3.0876   3.1054   3.1232   3.1410   3.1587
 PRANDTL NUMBER    0.6892   0.6892   0.6892   0.6892   0.6892   0.6893   0.6893   0.6893

 MASS FRACTIONS

 *H2              1.00000  1.00000  1.00000  1.00000  1.00000  1.00000  1.00000  1.00000

  * THERMODYNAMIC PROPERTIES FITTED TO 20000.K

 NOTE. WEIGHT FRACTION OF FUEL IN TOTAL FUELS AND OF OXIDANT IN TOTAL OXIDANTS









               THERMODYNAMIC EQUILIBRIUM PROPERTIES AT ASSIGNED

                           TEMPERATURE AND PRESSURE

 CASE =                

             REACTANT                    WT FRACTION      ENERGY      TEMP
                                          (SEE NOTE)     KJ/KG-MOL      K  
 FUEL        H2                           1.0000000         0.000      0.000
 OXIDANT     H2                           1.0000000         0.000      0.000

 O/F=    1.00000  %FUEL= 50.000000  R,EQ.RATIO= 0.000000  PHI,EQ.RATIO=-1.000000

 THERMODYNAMIC PROPERTIES

 P, BAR            60.000   60.000   60.000   60.000   60.000   60.000   60.000   67.000
 T, K              640.00   645.00   650.00   655.00   660.00   665.00   670.00   600.00
 RHO, KG/CU M    2.2730 0 2.2554 0 2.2380 0 2.2210 0 2.2041 0 2.1876 0 2.1712 0 2.7074 0
 H, KJ/KG         4952.80  5025.63  5098.47  5171.34  5244.21  5317.11  5390.02  4370.65
 U, KJ/KG         2313.12  2365.33  2417.56  2469.79  2522.05  2574.32  2626.61  1895.95
 G, KJ/KG        -32804.9 -33100.1 -33396.0 -33692.3 -33989.3 -34286.8 -34584.8 -30190.5
 S, KJ/(KG)(K)    58.9963  59.1097  59.2222  59.3339  59.4447  59.5547  59.6640  57.6020

 M, (1/n)           2.016    2.016    2.016    2.016    2.016    2.016    2.016    2.016
 (dLV/dLP)t      -1.00000 -1.00000 -1.00000 -1.00000 -1.00000 -1.00000 -1.00000 -1.00000
 (dLV/dLT)p        1.0000   1.0000   1.0000   1.0000   1.0000   1.0000   1.0000   1.0000
 Cp, KJ/(KG)(K)   14.5648  14.5678  14.5709  14.5740  14.5773  14.5806  14.5840  14.5436
 GAMMAs            1.3951   1.3949   1.3948   1.3947   1.3946   1.3945   1.3943   1.3959
 SON VEL,M/SEC     1919.0   1926.4   1933.8   1941.1   1948.4   1955.7   1962.9   1858.6

 TRANSPORT PROPERTIES (GASES ONLY)
   CONDUCTIVITY IN UNITS OF MILLIWATTS/(CM)(K)

 VISC,MILLIPOISE  0.15034  0.15115  0.15196  0.15278  0.15358  0.15439  0.15520  0.14377

  WITH EQUILIBRIUM REACTIONS

 Cp, KJ/(KG)(K)   14.5648  14.5678  14.5709  14.5740  14.5773  14.5806  14.5840  14.5436
 CONDUCTIVITY      3.1764   3.1942   3.2119   3.2296   3.2473   3.2650   3.2827   3.0339
 PRANDTL NUMBER    0.6893   0.6894   0.6894   0.6894   0.6894   0.6895   0.6895   0.6892

  WITH FROZEN REACTIONS

 Cp, KJ/(KG)(K)   14.5648  14.5678  14.5709  14.5740  14.5773  14.5806  14.5840  14.5436
 CONDUCTIVITY      3.1764   3.1942   3.2119   3.2296   3.2473   3.2650   3.2827   3.0339
 PRANDTL NUMBER    0.6893   0.6894   0.6894   0.6894   0.6894   0.6895   0.6895   0.6892

 MASS FRACTIONS

 *H2              1.00000  1.00000  1.00000  1.00000  1.00000  1.00000  1.00000  1.00000

  * THERMODYNAMIC PROPERTIES FITTED TO 20000.K

 NOTE. WEIGHT FRACTION OF FUEL IN TOTAL FUELS AND OF OXIDANT IN TOTAL OXIDANTS









               THERMODYNAMIC EQUILIBRIUM PROPERTIES AT ASSIGNED

                           TEMPERATURE AND PRESSURE

 CASE =                

             REACTANT                    WT FRACTION      ENERGY      TEMP
                                          (SEE NOTE)     KJ/KG-MOL      K  
 FUEL        H2                           1.0000000         0.000      0.000
 OXIDANT     H2                           1.0000000         0.000      0.000

 O/F=    1.00000  %FUEL= 50.000000  R,EQ.RATIO= 0.000000  PHI,EQ.RATIO=-1.000000

 THERMODYNAMIC PROPERTIES

 P, BAR            67.000   67.000   67.000   67.000   67.000   67.000   67.000   67.000
 T, K              605.00   610.00   615.00   620.00   625.00   630.00   635.00   640.00
 RHO, KG/CU M    2.6850 0 2.6630 0 2.6414 0 2.6201 0 2.5991 0 2.5785 0 2.5582 0 2.5382 0
 H, KJ/KG         4443.37  4516.11  4588.85  4661.62  4734.39  4807.18  4879.98  4952.80
 U, KJ/KG         1948.05  2000.17  2052.29  2104.43  2156.58  2208.75  2260.93  2313.12
 G, KJ/KG        -30478.8 -30767.7 -31057.2 -31347.3 -31638.0 -31929.3 -32221.2 -32513.6
 S, KJ/(KG)(K)    57.7227  57.8424  57.9611  58.0790  58.1959  58.3119  58.4270  58.5412

 M, (1/n)           2.016    2.016    2.016    2.016    2.016    2.016    2.016    2.016
 (dLV/dLP)t      -1.00000 -1.00000 -1.00000 -1.00000 -1.00000 -1.00000 -1.00000 -1.00000
 (dLV/dLT)p        1.0000   1.0000   1.0000   1.0000   1.0000   1.0000   1.0000   1.0000
 Cp, KJ/(KG)(K)   14.5460  14.5484  14.5509  14.5535  14.5562  14.5590  14.5618  14.5648
 GAMMAs            1.3958   1.3957   1.3956   1.3955   1.3954   1.3953   1.3952   1.3951
 SON VEL,M/SEC     1866.3   1873.9   1881.5   1889.1   1896.6   1904.1   1911.6   1919.0

 TRANSPORT PROPERTIES (GASES ONLY)
   CONDUCTIVITY IN UNITS OF MILLIWATTS/(CM)(K)

 VISC,MILLIPOISE  0.14460  0.14542  0.14625  0.14707  0.14789  0.14871  0.14952  0.15034

  WITH EQUILIBRIUM REACTIONS

 Cp, KJ/(KG)(K)   14.5460  14.5484  14.5509  14.5535  14.5562  14.5590  14.5618  14.5648
 CONDUCTIVITY      3.0519   3.0698   3.0876   3.1054   3.1232   3.1410   3.1587   3.1764
 PRANDTL NUMBER    0.6892   0.6892   0.6892   0.6892   0.6893   0.6893   0.6893   0.6893

  WITH FROZEN REACTIONS

 Cp, KJ/(KG)(K)   14.5460  14.5484  14.5509  14.5535  14.5562  14.5590  14.5618  14.5648
 CONDUCTIVITY      3.0519   3.0698   3.0876   3.1054   3.1232   3.1410   3.1587   3.1764
 PRANDTL NUMBER    0.6892   0.6892   0.6892   0.6892   0.6893   0.6893   0.6893   0.6893

 MASS FRACTIONS

 *H2              1.00000  1.00000  1.00000  1.00000  1.00000  1.00000  1.00000  1.00000

  * THERMODYNAMIC PROPERTIES FITTED TO 20000.K

 NOTE. WEIGHT FRACTION OF FUEL IN TOTAL FUELS AND OF OXIDANT IN TOTAL OXIDANTS









               THERMODYNAMIC EQUILIBRIUM PROPERTIES AT ASSIGNED

                           TEMPERATURE AND PRESSURE

 CASE =                

             REACTANT                    WT FRACTION      ENERGY      TEMP
                                          (SEE NOTE)     KJ/KG-MOL      K  
 FUEL        H2                           1.0000000         0.000      0.000
 OXIDANT     H2                           1.0000000         0.000      0.000

 O/F=    1.00000  %FUEL= 50.000000  R,EQ.RATIO= 0.000000  PHI,EQ.RATIO=-1.000000

 THERMODYNAMIC PROPERTIES

 P, BAR            67.000   67.000   67.000   67.000   67.000   67.000   74.000   74.000
 T, K              645.00   650.00   655.00   660.00   665.00   670.00   600.00   605.00
 RHO, KG/CU M    2.5185 0 2.4991 0 2.4801 0 2.4613 0 2.4428 0 2.4245 0 2.9903 0 2.9656 0
 H, KJ/KG         5025.63  5098.47  5171.34  5244.21  5317.11  5390.02  4370.65  4443.37
 U, KJ/KG         2365.33  2417.56  2469.79  2522.05  2574.32  2626.61  1895.95  1948.05
 G, KJ/KG        -32806.6 -33100.1 -33394.2 -33688.9 -33984.1 -34279.9 -29944.6 -30230.9
 S, KJ/(KG)(K)    58.6546  58.7671  58.8787  58.9896  59.0996  59.2088  57.1921  57.3128

 M, (1/n)           2.016    2.016    2.016    2.016    2.016    2.016    2.016    2.016
 (dLV/dLP)t      -1.00000 -1.00000 -1.00000 -1.00000 -1.00000 -1.00000 -1.00000 -1.00000
 (dLV/dLT)p        1.0000   1.0000   1.0000   1.0000   1.0000   1.0000   1.0000   1.0000
 Cp, KJ/(KG)(K)   14.5678  14.5709  14.5740  14.5773  14.5806  14.5840  14.5436  14.5460
 GAMMAs            1.3949   1.3948   1.3947   1.3946   1.3945   1.3943   1.3959   1.3958
 SON VEL,M/SEC     1926.4   1933.8   1941.1   1948.4   1955.7   1962.9   1858.6   1866.3

 TRANSPORT PROPERTIES (GASES ONLY)
   CONDUCTIVITY IN UNITS OF MILLIWATTS/(CM)(K)

 VISC,MILLIPOISE  0.15115  0.15196  0.15278  0.15358  0.15439  0.15520  0.14377  0.14460

  WITH EQUILIBRIUM REACTIONS

 Cp, KJ/(KG)(K)   14.5678  14.5709  14.5740  14.5773  14.5806  14.5840  14.5436  14.5460
 CONDUCTIVITY      3.1942   3.2119   3.2296   3.2473   3.2650   3.2827   3.0339   3.0519
 PRANDTL NUMBER    0.6894   0.6894   0.6894   0.6894   0.6895   0.6895   0.6892   0.6892

  WITH FROZEN REACTIONS

 Cp, KJ/(KG)(K)   14.5678  14.5709  14.5740  14.5773  14.5806  14.5840  14.5436  14.5460
 CONDUCTIVITY      3.1942   3.2119   3.2296   3.2473   3.2650   3.2827   3.0339   3.0519
 PRANDTL NUMBER    0.6894   0.6894   0.6894   0.6894   0.6895   0.6895   0.6892   0.6892

 MASS FRACTIONS

 *H2              1.00000  1.00000  1.00000  1.00000  1.00000  1.00000  1.00000  1.00000

  * THERMODYNAMIC PROPERTIES FITTED TO 20000.K

 NOTE. WEIGHT FRACTION OF FUEL IN TOTAL FUELS AND OF OXIDANT IN TOTAL OXIDANTS









               THERMODYNAMIC EQUILIBRIUM PROPERTIES AT ASSIGNED

                           TEMPERATURE AND PRESSURE

 CASE =                

             REACTANT                    WT FRACTION      ENERGY      TEMP
                                          (SEE NOTE)     KJ/KG-MOL      K  
 FUEL        H2                           1.0000000         0.000      0.000
 OXIDANT     H2                           1.0000000         0.000      0.000

 O/F=    1.00000  %FUEL= 50.000000  R,EQ.RATIO= 0.000000  PHI,EQ.RATIO=-1.000000

 THERMODYNAMIC PROPERTIES

 P, BAR            74.000   74.000   74.000   74.000   74.000   74.000   74.000   74.000
 T, K              610.00   615.00   620.00   625.00   630.00   635.00   640.00   645.00
 RHO, KG/CU M    2.9412 0 2.9173 0 2.8938 0 2.8707 0 2.8479 0 2.8255 0 2.8034 0 2.7816 0
 H, KJ/KG         4516.11  4588.85  4661.62  4734.39  4807.18  4879.98  4952.80  5025.63
 U, KJ/KG         2000.17  2052.29  2104.43  2156.58  2208.75  2260.93  2313.12  2365.33
 G, KJ/KG        -30517.7 -30805.2 -31093.2 -31381.9 -31671.1 -31960.9 -32251.3 -32542.2
 S, KJ/(KG)(K)    57.4325  57.5513  57.6691  57.7860  57.9020  58.0171  58.1313  58.2447

 M, (1/n)           2.016    2.016    2.016    2.016    2.016    2.016    2.016    2.016
 (dLV/dLP)t      -1.00000 -1.00000 -1.00000 -1.00000 -1.00000 -1.00000 -1.00000 -1.00000
 (dLV/dLT)p        1.0000   1.0000   1.0000   1.0000   1.0000   1.0000   1.0000   1.0000
 Cp, KJ/(KG)(K)   14.5484  14.5509  14.5535  14.5562  14.5590  14.5618  14.5648  14.5678
 GAMMAs            1.3957   1.3956   1.3955   1.3954   1.3953   1.3952   1.3951   1.3949
 SON VEL,M/SEC     1873.9   1881.5   1889.1   1896.6   1904.1   1911.6   1919.0   1926.4

 TRANSPORT PROPERTIES (GASES ONLY)
   CONDUCTIVITY IN UNITS OF MILLIWATTS/(CM)(K)

 VISC,MILLIPOISE  0.14542  0.14625  0.14707  0.14789  0.14871  0.14952  0.15034  0.15115

  WITH EQUILIBRIUM REACTIONS

 Cp, KJ/(KG)(K)   14.5484  14.5509  14.5535  14.5562  14.5590  14.5618  14.5648  14.5678
 CONDUCTIVITY      3.0698   3.0876   3.1054   3.1232   3.1410   3.1587   3.1764   3.1942
 PRANDTL NUMBER    0.6892   0.6892   0.6892   0.6893   0.6893   0.6893   0.6893   0.6894

  WITH FROZEN REACTIONS

 Cp, KJ/(KG)(K)   14.5484  14.5509  14.5535  14.5562  14.5590  14.5618  14.5648  14.5678
 CONDUCTIVITY      3.0698   3.0876   3.1054   3.1232   3.1410   3.1587   3.1764   3.1942
 PRANDTL NUMBER    0.6892   0.6892   0.6892   0.6893   0.6893   0.6893   0.6893   0.6894

 MASS FRACTIONS

 *H2              1.00000  1.00000  1.00000  1.00000  1.00000  1.00000  1.00000  1.00000

  * THERMODYNAMIC PROPERTIES FITTED TO 20000.K

 NOTE. WEIGHT FRACTION OF FUEL IN TOTAL FUELS AND OF OXIDANT IN TOTAL OXIDANTS









               THERMODYNAMIC EQUILIBRIUM PROPERTIES AT ASSIGNED

                           TEMPERATURE AND PRESSURE

 CASE =                

             REACTANT                    WT FRACTION      ENERGY      TEMP
                                          (SEE NOTE)     KJ/KG-MOL      K  
 FUEL        H2                           1.0000000         0.000      0.000
 OXIDANT     H2                           1.0000000         0.000      0.000

 O/F=    1.00000  %FUEL= 50.000000  R,EQ.RATIO= 0.000000  PHI,EQ.RATIO=-1.000000

 THERMODYNAMIC PROPERTIES

 P, BAR            74.000   74.000   74.000   74.000   74.000   82.500   82.500   82.500
 T, K              650.00   655.00   660.00   665.00   670.00   600.00   605.00   610.00
 RHO, KG/CU M    2.7602 0 2.7392 0 2.7184 0 2.6980 0 2.6779 0 3.3337 0 3.3062 0 3.2791 0
 H, KJ/KG         5098.47  5171.34  5244.21  5317.11  5390.02  4370.65  4443.37  4516.11
 U, KJ/KG         2417.56  2469.79  2522.05  2574.32  2626.61  1895.95  1948.05  2000.17
 G, KJ/KG        -32833.7 -33125.8 -33418.4 -33711.6 -34005.3 -29675.5 -29959.5 -30244.2
 S, KJ/(KG)(K)    58.3572  58.4689  58.5797  58.6897  58.7990  56.7437  56.8643  56.9840

 M, (1/n)           2.016    2.016    2.016    2.016    2.016    2.016    2.016    2.016
 (dLV/dLP)t      -1.00000 -1.00000 -1.00000 -1.00000 -1.00000 -1.00000 -1.00000 -1.00000
 (dLV/dLT)p        1.0000   1.0000   1.0000   1.0000   1.0000   1.0000   1.0000   1.0000
 Cp, KJ/(KG)(K)   14.5709  14.5740  14.5773  14.5806  14.5840  14.5436  14.5460  14.5484
 GAMMAs            1.3948   1.3947   1.3946   1.3945   1.3943   1.3959   1.3958   1.3957
 SON VEL,M/SEC     1933.8   1941.1   1948.4   1955.7   1962.9   1858.6   1866.3   1873.9

 TRANSPORT PROPERTIES (GASES ONLY)
   CONDUCTIVITY IN UNITS OF MILLIWATTS/(CM)(K)

 VISC,MILLIPOISE  0.15196  0.15278  0.15358  0.15439  0.15520  0.14377  0.14460  0.14542

  WITH EQUILIBRIUM REACTIONS

 Cp, KJ/(KG)(K)   14.5709  14.5740  14.5773  14.5806  14.5840  14.5436  14.5460  14.5484
 CONDUCTIVITY      3.2119   3.2296   3.2473   3.2650   3.2827   3.0339   3.0519   3.0698
 PRANDTL NUMBER    0.6894   0.6894   0.6894   0.6895   0.6895   0.6892   0.6892   0.6892

  WITH FROZEN REACTIONS

 Cp, KJ/(KG)(K)   14.5709  14.5740  14.5773  14.5806  14.5840  14.5436  14.5460  14.5484
 CONDUCTIVITY      3.2119   3.2296   3.2473   3.2650   3.2827   3.0339   3.0519   3.0698
 PRANDTL NUMBER    0.6894   0.6894   0.6894   0.6895   0.6895   0.6892   0.6892   0.6892

 MASS FRACTIONS

 *H2              1.00000  1.00000  1.00000  1.00000  1.00000  1.00000  1.00000  1.00000

  * THERMODYNAMIC PROPERTIES FITTED TO 20000.K

 NOTE. WEIGHT FRACTION OF FUEL IN TOTAL FUELS AND OF OXIDANT IN TOTAL OXIDANTS









               THERMODYNAMIC EQUILIBRIUM PROPERTIES AT ASSIGNED

                           TEMPERATURE AND PRESSURE

 CASE =                

             REACTANT                    WT FRACTION      ENERGY      TEMP
                                          (SEE NOTE)     KJ/KG-MOL      K  
 FUEL        H2                           1.0000000         0.000      0.000
 OXIDANT     H2                           1.0000000         0.000      0.000

 O/F=    1.00000  %FUEL= 50.000000  R,EQ.RATIO= 0.000000  PHI,EQ.RATIO=-1.000000

 THERMODYNAMIC PROPERTIES

 P, BAR            82.500   82.500   82.500   82.500   82.500   82.500   82.500   82.500
 T, K              615.00   620.00   625.00   630.00   635.00   640.00   645.00   650.00
 RHO, KG/CU M    3.2524 0 3.2262 0 3.2004 0 3.1750 0 3.1500 0 3.1254 0 3.1012 0 3.0773 0
 H, KJ/KG         4588.85  4661.62  4734.39  4807.18  4879.98  4952.80  5025.63  5098.47
 U, KJ/KG         2052.29  2104.43  2156.58  2208.75  2260.93  2313.12  2365.33  2417.56
 G, KJ/KG        -30529.4 -30815.2 -31101.6 -31388.6 -31676.1 -31964.2 -32252.9 -32542.2
 S, KJ/(KG)(K)    57.1028  57.2206  57.3375  57.4535  57.5686  57.6829  57.7962  57.9087

 M, (1/n)           2.016    2.016    2.016    2.016    2.016    2.016    2.016    2.016
 (dLV/dLP)t      -1.00000 -1.00000 -1.00000 -1.00000 -1.00000 -1.00000 -1.00000 -1.00000
 (dLV/dLT)p        1.0000   1.0000   1.0000   1.0000   1.0000   1.0000   1.0000   1.0000
 Cp, KJ/(KG)(K)   14.5509  14.5535  14.5562  14.5590  14.5618  14.5648  14.5678  14.5709
 GAMMAs            1.3956   1.3955   1.3954   1.3953   1.3952   1.3951   1.3949   1.3948
 SON VEL,M/SEC     1881.5   1889.1   1896.6   1904.1   1911.6   1919.0   1926.4   1933.8

 TRANSPORT PROPERTIES (GASES ONLY)
   CONDUCTIVITY IN UNITS OF MILLIWATTS/(CM)(K)

 VISC,MILLIPOISE  0.14625  0.14707  0.14789  0.14871  0.14952  0.15034  0.15115  0.15196

  WITH EQUILIBRIUM REACTIONS

 Cp, KJ/(KG)(K)   14.5509  14.5535  14.5562  14.5590  14.5618  14.5648  14.5678  14.5709
 CONDUCTIVITY      3.0876   3.1054   3.1232   3.1410   3.1587   3.1764   3.1942   3.2119
 PRANDTL NUMBER    0.6892   0.6892   0.6893   0.6893   0.6893   0.6893   0.6894   0.6894

  WITH FROZEN REACTIONS

 Cp, KJ/(KG)(K)   14.5509  14.5535  14.5562  14.5590  14.5618  14.5648  14.5678  14.5709
 CONDUCTIVITY      3.0876   3.1054   3.1232   3.1410   3.1587   3.1764   3.1942   3.2119
 PRANDTL NUMBER    0.6892   0.6892   0.6893   0.6893   0.6893   0.6893   0.6894   0.6894

 MASS FRACTIONS

 *H2              1.00000  1.00000  1.00000  1.00000  1.00000  1.00000  1.00000  1.00000

  * THERMODYNAMIC PROPERTIES FITTED TO 20000.K

 NOTE. WEIGHT FRACTION OF FUEL IN TOTAL FUELS AND OF OXIDANT IN TOTAL OXIDANTS









               THERMODYNAMIC EQUILIBRIUM PROPERTIES AT ASSIGNED

                           TEMPERATURE AND PRESSURE

 CASE =                

             REACTANT                    WT FRACTION      ENERGY      TEMP
                                          (SEE NOTE)     KJ/KG-MOL      K  
 FUEL        H2                           1.0000000         0.000      0.000
 OXIDANT     H2                           1.0000000         0.000      0.000

 O/F=    1.00000  %FUEL= 50.000000  R,EQ.RATIO= 0.000000  PHI,EQ.RATIO=-1.000000

 THERMODYNAMIC PROPERTIES

 P, BAR            82.500   82.500   82.500   82.500   91.000   91.000   91.000   91.000
 T, K              655.00   660.00   665.00   670.00   600.00   605.00   610.00   615.00
 RHO, KG/CU M    3.0538 0 3.0307 0 3.0079 0 2.9854 0 3.6772 0 3.6468 0 3.6169 0 3.5875 0
 H, KJ/KG         5171.34  5244.21  5317.11  5390.02  4370.65  4443.37  4516.11  4588.85
 U, KJ/KG         2469.79  2522.05  2574.32  2626.61  1895.95  1948.05  2000.17  2052.29
 G, KJ/KG        -32832.0 -33122.4 -33413.3 -33704.8 -29432.9 -29714.9 -29997.4 -30280.6
 S, KJ/(KG)(K)    58.0204  58.1312  58.2413  58.3505  56.3392  56.4599  56.5796  56.6984

 M, (1/n)           2.016    2.016    2.016    2.016    2.016    2.016    2.016    2.016
 (dLV/dLP)t      -1.00000 -1.00000 -1.00000 -1.00000 -1.00000 -1.00000 -1.00000 -1.00000
 (dLV/dLT)p        1.0000   1.0000   1.0000   1.0000   1.0000   1.0000   1.0000   1.0000
 Cp, KJ/(KG)(K)   14.5740  14.5773  14.5806  14.5840  14.5436  14.5460  14.5484  14.5509
 GAMMAs            1.3947   1.3946   1.3945   1.3943   1.3959   1.3958   1.3957   1.3956
 SON VEL,M/SEC     1941.1   1948.4   1955.7   1962.9   1858.6   1866.3   1873.9   1881.5

 TRANSPORT PROPERTIES (GASES ONLY)
   CONDUCTIVITY IN UNITS OF MILLIWATTS/(CM)(K)

 VISC,MILLIPOISE  0.15278  0.15358  0.15439  0.15520  0.14377  0.14460  0.14542  0.14625

  WITH EQUILIBRIUM REACTIONS

 Cp, KJ/(KG)(K)   14.5740  14.5773  14.5806  14.5840  14.5436  14.5460  14.5484  14.5509
 CONDUCTIVITY      3.2296   3.2473   3.2650   3.2827   3.0339   3.0519   3.0698   3.0876
 PRANDTL NUMBER    0.6894   0.6894   0.6895   0.6895   0.6892   0.6892   0.6892   0.6892

  WITH FROZEN REACTIONS

 Cp, KJ/(KG)(K)   14.5740  14.5773  14.5806  14.5840  14.5436  14.5460  14.5484  14.5509
 CONDUCTIVITY      3.2296   3.2473   3.2650   3.2827   3.0339   3.0519   3.0698   3.0876
 PRANDTL NUMBER    0.6894   0.6894   0.6895   0.6895   0.6892   0.6892   0.6892   0.6892

 MASS FRACTIONS

 *H2              1.00000  1.00000  1.00000  1.00000  1.00000  1.00000  1.00000  1.00000

  * THERMODYNAMIC PROPERTIES FITTED TO 20000.K

 NOTE. WEIGHT FRACTION OF FUEL IN TOTAL FUELS AND OF OXIDANT IN TOTAL OXIDANTS









               THERMODYNAMIC EQUILIBRIUM PROPERTIES AT ASSIGNED

                           TEMPERATURE AND PRESSURE

 CASE =                

             REACTANT                    WT FRACTION      ENERGY      TEMP
                                          (SEE NOTE)     KJ/KG-MOL      K  
 FUEL        H2                           1.0000000         0.000      0.000
 OXIDANT     H2                           1.0000000         0.000      0.000

 O/F=    1.00000  %FUEL= 50.000000  R,EQ.RATIO= 0.000000  PHI,EQ.RATIO=-1.000000

 THERMODYNAMIC PROPERTIES

 P, BAR            91.000   91.000   91.000   91.000   91.000   91.000   91.000   91.000
 T, K              620.00   625.00   630.00   635.00   640.00   645.00   650.00   655.00
 RHO, KG/CU M    3.5586 0 3.5301 0 3.5021 0 3.4745 0 3.4474 0 3.4207 0 3.3944 0 3.3684 0
 H, KJ/KG         4661.62  4734.39  4807.18  4879.98  4952.80  5025.63  5098.47  5171.34
 U, KJ/KG         2104.43  2156.58  2208.75  2260.93  2313.12  2365.33  2417.56  2469.79
 G, KJ/KG        -30564.4 -30848.8 -31133.7 -31419.3 -31705.4 -31992.1 -32279.3 -32567.1
 S, KJ/(KG)(K)    56.8162  56.9331  57.0491  57.1642  57.2784  57.3918  57.5043  57.6159

 M, (1/n)           2.016    2.016    2.016    2.016    2.016    2.016    2.016    2.016
 (dLV/dLP)t      -1.00000 -1.00000 -1.00000 -1.00000 -1.00000 -1.00000 -1.00000 -1.00000
 (dLV/dLT)p        1.0000   1.0000   1.0000   1.0000   1.0000   1.0000   1.0000   1.0000
 Cp, KJ/(KG)(K)   14.5535  14.5562  14.5590  14.5618  14.5648  14.5678  14.5709  14.5740
 GAMMAs            1.3955   1.3954   1.3953   1.3952   1.3951   1.3949   1.3948   1.3947
 SON VEL,M/SEC     1889.1   1896.6   1904.1   1911.6   1919.0   1926.4   1933.8   1941.1

 TRANSPORT PROPERTIES (GASES ONLY)
   CONDUCTIVITY IN UNITS OF MILLIWATTS/(CM)(K)

 VISC,MILLIPOISE  0.14707  0.14789  0.14871  0.14952  0.15034  0.15115  0.15196  0.15278

  WITH EQUILIBRIUM REACTIONS

 Cp, KJ/(KG)(K)   14.5535  14.5562  14.5590  14.5618  14.5648  14.5678  14.5709  14.5740
 CONDUCTIVITY      3.1054   3.1232   3.1410   3.1587   3.1764   3.1942   3.2119   3.2296
 PRANDTL NUMBER    0.6892   0.6893   0.6893   0.6893   0.6893   0.6894   0.6894   0.6894

  WITH FROZEN REACTIONS

 Cp, KJ/(KG)(K)   14.5535  14.5562  14.5590  14.5618  14.5648  14.5678  14.5709  14.5740
 CONDUCTIVITY      3.1054   3.1232   3.1410   3.1587   3.1764   3.1942   3.2119   3.2296
 PRANDTL NUMBER    0.6892   0.6893   0.6893   0.6893   0.6893   0.6894   0.6894   0.6894

 MASS FRACTIONS

 *H2              1.00000  1.00000  1.00000  1.00000  1.00000  1.00000  1.00000  1.00000

  * THERMODYNAMIC PROPERTIES FITTED TO 20000.K

 NOTE. WEIGHT FRACTION OF FUEL IN TOTAL FUELS AND OF OXIDANT IN TOTAL OXIDANTS









               THERMODYNAMIC EQUILIBRIUM PROPERTIES AT ASSIGNED

                           TEMPERATURE AND PRESSURE

 CASE =                

             REACTANT                    WT FRACTION      ENERGY      TEMP
                                          (SEE NOTE)     KJ/KG-MOL      K  
 FUEL        H2                           1.0000000         0.000      0.000
 OXIDANT     H2                           1.0000000         0.000      0.000

 O/F=    1.00000  %FUEL= 50.000000  R,EQ.RATIO= 0.000000  PHI,EQ.RATIO=-1.000000

 THERMODYNAMIC PROPERTIES

 P, BAR            91.000   91.000   91.000   100.00   100.00   100.00   100.00   100.00
 T, K              660.00   665.00   670.00   600.00   605.00   610.00   615.00   620.00
 RHO, KG/CU M    3.3429 0 3.3178 0 3.2930 0 4.0409 0 4.0075 0 3.9747 0 3.9423 0 3.9106 0
 H, KJ/KG         5244.21  5317.11  5390.02  4370.65  4443.37  4516.11  4588.85  4661.62
 U, KJ/KG         2522.05  2574.32  2626.61  1895.95  1948.05  2000.17  2052.29  2104.43
 G, KJ/KG        -32855.5 -33144.4 -33433.8 -29199.5 -29479.5 -29760.2 -30041.4 -30323.3
 S, KJ/(KG)(K)    57.7268  57.8368  57.9460  55.9502  56.0709  56.1906  56.3094  56.4272

 M, (1/n)           2.016    2.016    2.016    2.016    2.016    2.016    2.016    2.016
 (dLV/dLP)t      -1.00000 -1.00000 -1.00000 -1.00000 -1.00000 -1.00000 -1.00000 -1.00000
 (dLV/dLT)p        1.0000   1.0000   1.0000   1.0000   1.0000   1.0000   1.0000   1.0000
 Cp, KJ/(KG)(K)   14.5773  14.5806  14.5840  14.5436  14.5460  14.5484  14.5509  14.5535
 GAMMAs            1.3946   1.3945   1.3943   1.3959   1.3958   1.3957   1.3956   1.3955
 SON VEL,M/SEC     1948.4   1955.7   1962.9   1858.6   1866.3   1873.9   1881.5   1889.1

 TRANSPORT PROPERTIES (GASES ONLY)
   CONDUCTIVITY IN UNITS OF MILLIWATTS/(CM)(K)

 VISC,MILLIPOISE  0.15358  0.15439  0.15520  0.14377  0.14460  0.14542  0.14625  0.14707

  WITH EQUILIBRIUM REACTIONS

 Cp, KJ/(KG)(K)   14.5773  14.5806  14.5840  14.5436  14.5460  14.5484  14.5509  14.5535
 CONDUCTIVITY      3.2473   3.2650   3.2827   3.0339   3.0519   3.0698   3.0876   3.1054
 PRANDTL NUMBER    0.6894   0.6895   0.6895   0.6892   0.6892   0.6892   0.6892   0.6892

  WITH FROZEN REACTIONS

 Cp, KJ/(KG)(K)   14.5773  14.5806  14.5840  14.5436  14.5460  14.5484  14.5509  14.5535
 CONDUCTIVITY      3.2473   3.2650   3.2827   3.0339   3.0519   3.0698   3.0876   3.1054
 PRANDTL NUMBER    0.6894   0.6895   0.6895   0.6892   0.6892   0.6892   0.6892   0.6892

 MASS FRACTIONS

 *H2              1.00000  1.00000  1.00000  1.00000  1.00000  1.00000  1.00000  1.00000

  * THERMODYNAMIC PROPERTIES FITTED TO 20000.K

 NOTE. WEIGHT FRACTION OF FUEL IN TOTAL FUELS AND OF OXIDANT IN TOTAL OXIDANTS









               THERMODYNAMIC EQUILIBRIUM PROPERTIES AT ASSIGNED

                           TEMPERATURE AND PRESSURE

 CASE =                

             REACTANT                    WT FRACTION      ENERGY      TEMP
                                          (SEE NOTE)     KJ/KG-MOL      K  
 FUEL        H2                           1.0000000         0.000      0.000
 OXIDANT     H2                           1.0000000         0.000      0.000

 O/F=    1.00000  %FUEL= 50.000000  R,EQ.RATIO= 0.000000  PHI,EQ.RATIO=-1.000000

 THERMODYNAMIC PROPERTIES

 P, BAR            100.00   100.00   100.00   100.00   100.00   100.00   100.00   100.00
 T, K              625.00   630.00   635.00   640.00   645.00   650.00   655.00   660.00
 RHO, KG/CU M    3.8793 0 3.8485 0 3.8182 0 3.7883 0 3.7590 0 3.7301 0 3.7016 0 3.6735 0
 H, KJ/KG         4734.39  4807.18  4879.98  4952.80  5025.63  5098.47  5171.34  5244.21
 U, KJ/KG         2156.58  2208.75  2260.93  2313.12  2365.33  2417.56  2469.79  2522.05
 G, KJ/KG        -30605.7 -30888.7 -31172.3 -31456.4 -31741.2 -32026.5 -32312.3 -32598.7
 S, KJ/(KG)(K)    56.5441  56.6601  56.7752  56.8894  57.0028  57.1153  57.2270  57.3378

 M, (1/n)           2.016    2.016    2.016    2.016    2.016    2.016    2.016    2.016
 (dLV/dLP)t      -1.00000 -1.00000 -1.00000 -1.00000 -1.00000 -1.00000 -1.00000 -1.00000
 (dLV/dLT)p        1.0000   1.0000   1.0000   1.0000   1.0000   1.0000   1.0000   1.0000
 Cp, KJ/(KG)(K)   14.5562  14.5590  14.5618  14.5648  14.5678  14.5709  14.5740  14.5773
 GAMMAs            1.3954   1.3953   1.3952   1.3951   1.3949   1.3948   1.3947   1.3946
 SON VEL,M/SEC     1896.6   1904.1   1911.6   1919.0   1926.4   1933.8   1941.1   1948.4

 TRANSPORT PROPERTIES (GASES ONLY)
   CONDUCTIVITY IN UNITS OF MILLIWATTS/(CM)(K)

 VISC,MILLIPOISE  0.14789  0.14871  0.14952  0.15034  0.15115  0.15196  0.15278  0.15358

  WITH EQUILIBRIUM REACTIONS

 Cp, KJ/(KG)(K)   14.5562  14.5590  14.5618  14.5648  14.5678  14.5709  14.5740  14.5773
 CONDUCTIVITY      3.1232   3.1410   3.1587   3.1764   3.1942   3.2119   3.2296   3.2473
 PRANDTL NUMBER    0.6893   0.6893   0.6893   0.6893   0.6894   0.6894   0.6894   0.6894

  WITH FROZEN REACTIONS

 Cp, KJ/(KG)(K)   14.5562  14.5590  14.5618  14.5648  14.5678  14.5709  14.5740  14.5773
 CONDUCTIVITY      3.1232   3.1410   3.1587   3.1764   3.1942   3.2119   3.2296   3.2473
 PRANDTL NUMBER    0.6893   0.6893   0.6893   0.6893   0.6894   0.6894   0.6894   0.6894

 MASS FRACTIONS

 *H2              1.00000  1.00000  1.00000  1.00000  1.00000  1.00000  1.00000  1.00000

  * THERMODYNAMIC PROPERTIES FITTED TO 20000.K

 NOTE. WEIGHT FRACTION OF FUEL IN TOTAL FUELS AND OF OXIDANT IN TOTAL OXIDANTS









               THERMODYNAMIC EQUILIBRIUM PROPERTIES AT ASSIGNED

                           TEMPERATURE AND PRESSURE

 CASE =                

             REACTANT                    WT FRACTION      ENERGY      TEMP
                                          (SEE NOTE)     KJ/KG-MOL      K  
 FUEL        H2                           1.0000000         0.000      0.000
 OXIDANT     H2                           1.0000000         0.000      0.000

 O/F=    1.00000  %FUEL= 50.000000  R,EQ.RATIO= 0.000000  PHI,EQ.RATIO=-1.000000

 THERMODYNAMIC PROPERTIES

 P, BAR            100.00   100.00   110.00   110.00   110.00   110.00   110.00   110.00
 T, K              665.00   670.00   600.00   605.00   610.00   615.00   620.00   625.00
 RHO, KG/CU M    3.6459 0 3.6187 0 4.4450 0 4.4083 0 4.3721 0 4.3366 0 4.3016 0 4.2672 0
 H, KJ/KG         5317.11  5390.02  4370.65  4443.37  4516.11  4588.85  4661.62  4734.39
 U, KJ/KG         2574.32  2626.61  1895.95  1948.05  2000.17  2052.29  2104.43  2156.58
 G, KJ/KG        -32885.7 -33173.2 -28963.6 -29241.7 -29520.4 -29799.6 -30079.5 -30360.0
 S, KJ/(KG)(K)    57.4478  57.5571  55.5571  55.6778  55.7975  55.9163  56.0341  56.1510

 M, (1/n)           2.016    2.016    2.016    2.016    2.016    2.016    2.016    2.016
 (dLV/dLP)t      -1.00000 -1.00000 -1.00000 -1.00000 -1.00000 -1.00000 -1.00000 -1.00000
 (dLV/dLT)p        1.0000   1.0000   1.0000   1.0000   1.0000   1.0000   1.0000   1.0000
 Cp, KJ/(KG)(K)   14.5806  14.5840  14.5436  14.5460  14.5484  14.5509  14.5535  14.5562
 GAMMAs            1.3945   1.3943   1.3959   1.3958   1.3957   1.3956   1.3955   1.3954
 SON VEL,M/SEC     1955.7   1962.9   1858.6   1866.3   1873.9   1881.5   1889.1   1896.6

 TRANSPORT PROPERTIES (GASES ONLY)
   CONDUCTIVITY IN UNITS OF MILLIWATTS/(CM)(K)

 VISC,MILLIPOISE  0.15439  0.15520  0.14377  0.14460  0.14542  0.14625  0.14707  0.14789

  WITH EQUILIBRIUM REACTIONS

 Cp, KJ/(KG)(K)   14.5806  14.5840  14.5436  14.5460  14.5484  14.5509  14.5535  14.5562
 CONDUCTIVITY      3.2650   3.2827   3.0339   3.0519   3.0698   3.0876   3.1054   3.1232
 PRANDTL NUMBER    0.6895   0.6895   0.6892   0.6892   0.6892   0.6892   0.6892   0.6893

  WITH FROZEN REACTIONS

 Cp, KJ/(KG)(K)   14.5806  14.5840  14.5436  14.5460  14.5484  14.5509  14.5535  14.5562
 CONDUCTIVITY      3.2650   3.2827   3.0339   3.0519   3.0698   3.0876   3.1054   3.1232
 PRANDTL NUMBER    0.6895   0.6895   0.6892   0.6892   0.6892   0.6892   0.6892   0.6893

 MASS FRACTIONS

 *H2              1.00000  1.00000  1.00000  1.00000  1.00000  1.00000  1.00000  1.00000

  * THERMODYNAMIC PROPERTIES FITTED TO 20000.K

 NOTE. WEIGHT FRACTION OF FUEL IN TOTAL FUELS AND OF OXIDANT IN TOTAL OXIDANTS









               THERMODYNAMIC EQUILIBRIUM PROPERTIES AT ASSIGNED

                           TEMPERATURE AND PRESSURE

 CASE =                

             REACTANT                    WT FRACTION      ENERGY      TEMP
                                          (SEE NOTE)     KJ/KG-MOL      K  
 FUEL        H2                           1.0000000         0.000      0.000
 OXIDANT     H2                           1.0000000         0.000      0.000

 O/F=    1.00000  %FUEL= 50.000000  R,EQ.RATIO= 0.000000  PHI,EQ.RATIO=-1.000000

 THERMODYNAMIC PROPERTIES

 P, BAR            110.00   110.00   110.00   110.00   110.00   110.00   110.00   110.00
 T, K              630.00   635.00   640.00   645.00   650.00   655.00   660.00   665.00
 RHO, KG/CU M    4.2333 0 4.2000 0 4.1672 0 4.1349 0 4.1031 0 4.0717 0 4.0409 0 4.0105 0
 H, KJ/KG         4807.18  4879.98  4952.80  5025.63  5098.47  5171.34  5244.21  5317.11
 U, KJ/KG         2208.75  2260.93  2313.12  2365.33  2417.56  2469.79  2522.05  2574.32
 G, KJ/KG        -30641.0 -30922.7 -31204.9 -31487.6 -31770.9 -32054.8 -32339.3 -32624.3
 S, KJ/(KG)(K)    56.2670  56.3821  56.4963  56.6097  56.7222  56.8339  56.9447  57.0547

 M, (1/n)           2.016    2.016    2.016    2.016    2.016    2.016    2.016    2.016
 (dLV/dLP)t      -1.00000 -1.00000 -1.00000 -1.00000 -1.00000 -1.00000 -1.00000 -1.00000
 (dLV/dLT)p        1.0000   1.0000   1.0000   1.0000   1.0000   1.0000   1.0000   1.0000
 Cp, KJ/(KG)(K)   14.5590  14.5618  14.5648  14.5678  14.5709  14.5740  14.5773  14.5806
 GAMMAs            1.3953   1.3952   1.3951   1.3949   1.3948   1.3947   1.3946   1.3945
 SON VEL,M/SEC     1904.1   1911.6   1919.0   1926.4   1933.8   1941.1   1948.4   1955.7

 TRANSPORT PROPERTIES (GASES ONLY)
   CONDUCTIVITY IN UNITS OF MILLIWATTS/(CM)(K)

 VISC,MILLIPOISE  0.14871  0.14952  0.15034  0.15115  0.15196  0.15278  0.15358  0.15439

  WITH EQUILIBRIUM REACTIONS

 Cp, KJ/(KG)(K)   14.5590  14.5618  14.5648  14.5678  14.5709  14.5740  14.5773  14.5806
 CONDUCTIVITY      3.1410   3.1587   3.1764   3.1942   3.2119   3.2296   3.2473   3.2650
 PRANDTL NUMBER    0.6893   0.6893   0.6893   0.6894   0.6894   0.6894   0.6894   0.6895

  WITH FROZEN REACTIONS

 Cp, KJ/(KG)(K)   14.5590  14.5618  14.5648  14.5678  14.5709  14.5740  14.5773  14.5806
 CONDUCTIVITY      3.1410   3.1587   3.1764   3.1942   3.2119   3.2296   3.2473   3.2650
 PRANDTL NUMBER    0.6893   0.6893   0.6893   0.6894   0.6894   0.6894   0.6894   0.6895

 MASS FRACTIONS

 *H2              1.00000  1.00000  1.00000  1.00000  1.00000  1.00000  1.00000  1.00000

  * THERMODYNAMIC PROPERTIES FITTED TO 20000.K

 NOTE. WEIGHT FRACTION OF FUEL IN TOTAL FUELS AND OF OXIDANT IN TOTAL OXIDANTS









               THERMODYNAMIC EQUILIBRIUM PROPERTIES AT ASSIGNED

                           TEMPERATURE AND PRESSURE

 CASE =                

             REACTANT                    WT FRACTION      ENERGY      TEMP
                                          (SEE NOTE)     KJ/KG-MOL      K  
 FUEL        H2                           1.0000000         0.000      0.000
 OXIDANT     H2                           1.0000000         0.000      0.000

 O/F=    1.00000  %FUEL= 50.000000  R,EQ.RATIO= 0.000000  PHI,EQ.RATIO=-1.000000

 THERMODYNAMIC PROPERTIES

 P, BAR            110.00   120.00   120.00   120.00   120.00   120.00   120.00   120.00
 T, K              670.00   600.00   605.00   610.00   615.00   620.00   625.00   630.00
 RHO, KG/CU M    3.9806 0 4.8491 0 4.8090 0 4.7696 0 4.7308 0 4.6927 0 4.6551 0 4.6182 0
 H, KJ/KG         5390.02  4370.65  4443.37  4516.11  4588.85  4661.62  4734.39  4807.18
 U, KJ/KG         2626.61  1895.95  1948.05  2000.17  2052.29  2104.43  2156.58  2208.75
 G, KJ/KG        -32909.8 -28748.3 -29024.6 -29301.5 -29578.9 -29857.0 -30135.7 -30414.9
 S, KJ/(KG)(K)    57.1640  55.1982  55.3189  55.4386  55.5574  55.6752  55.7921  55.9081

 M, (1/n)           2.016    2.016    2.016    2.016    2.016    2.016    2.016    2.016
 (dLV/dLP)t      -1.00000 -1.00000 -1.00000 -1.00000 -1.00000 -1.00000 -1.00000 -1.00000
 (dLV/dLT)p        1.0000   1.0000   1.0000   1.0000   1.0000   1.0000   1.0000   1.0000
 Cp, KJ/(KG)(K)   14.5840  14.5436  14.5460  14.5484  14.5509  14.5535  14.5562  14.5590
 GAMMAs            1.3943   1.3959   1.3958   1.3957   1.3956   1.3955   1.3954   1.3953
 SON VEL,M/SEC     1962.9   1858.6   1866.3   1873.9   1881.5   1889.1   1896.6   1904.1

 TRANSPORT PROPERTIES (GASES ONLY)
   CONDUCTIVITY IN UNITS OF MILLIWATTS/(CM)(K)

 VISC,MILLIPOISE  0.15520  0.14377  0.14460  0.14542  0.14625  0.14707  0.14789  0.14871

  WITH EQUILIBRIUM REACTIONS

 Cp, KJ/(KG)(K)   14.5840  14.5436  14.5460  14.5484  14.5509  14.5535  14.5562  14.5590
 CONDUCTIVITY      3.2827   3.0339   3.0519   3.0698   3.0876   3.1054   3.1232   3.1410
 PRANDTL NUMBER    0.6895   0.6892   0.6892   0.6892   0.6892   0.6892   0.6893   0.6893

  WITH FROZEN REACTIONS

 Cp, KJ/(KG)(K)   14.5840  14.5436  14.5460  14.5484  14.5509  14.5535  14.5562  14.5590
 CONDUCTIVITY      3.2827   3.0339   3.0519   3.0698   3.0876   3.1054   3.1232   3.1410
 PRANDTL NUMBER    0.6895   0.6892   0.6892   0.6892   0.6892   0.6892   0.6893   0.6893

 MASS FRACTIONS

 *H2              1.00000  1.00000  1.00000  1.00000  1.00000  1.00000  1.00000  1.00000

  * THERMODYNAMIC PROPERTIES FITTED TO 20000.K

 NOTE. WEIGHT FRACTION OF FUEL IN TOTAL FUELS AND OF OXIDANT IN TOTAL OXIDANTS









               THERMODYNAMIC EQUILIBRIUM PROPERTIES AT ASSIGNED

                           TEMPERATURE AND PRESSURE

 CASE =                

             REACTANT                    WT FRACTION      ENERGY      TEMP
                                          (SEE NOTE)     KJ/KG-MOL      K  
 FUEL        H2                           1.0000000         0.000      0.000
 OXIDANT     H2                           1.0000000         0.000      0.000

 O/F=    1.00000  %FUEL= 50.000000  R,EQ.RATIO= 0.000000  PHI,EQ.RATIO=-1.000000

 THERMODYNAMIC PROPERTIES

 P, BAR            120.00   120.00   120.00   120.00   120.00   120.00   120.00   120.00
 T, K              635.00   640.00   645.00   650.00   655.00   660.00   665.00   670.00
 RHO, KG/CU M    4.5818 0 4.5460 0 4.5108 0 4.4761 0 4.4419 0 4.4083 0 4.3751 0 4.3425 0
 H, KJ/KG         4879.98  4952.80  5025.63  5098.47  5171.34  5244.21  5317.11  5390.02
 U, KJ/KG         2260.93  2313.12  2365.33  2417.56  2469.79  2522.05  2574.32  2626.61
 G, KJ/KG        -30694.8 -30975.2 -31256.1 -31537.7 -31819.8 -32102.4 -32385.6 -32669.4
 S, KJ/(KG)(K)    56.0232  56.1374  56.2508  56.3633  56.4750  56.5858  56.6958  56.8051

 M, (1/n)           2.016    2.016    2.016    2.016    2.016    2.016    2.016    2.016
 (dLV/dLP)t      -1.00000 -1.00000 -1.00000 -1.00000 -1.00000 -1.00000 -1.00000 -1.00000
 (dLV/dLT)p        1.0000   1.0000   1.0000   1.0000   1.0000   1.0000   1.0000   1.0000
 Cp, KJ/(KG)(K)   14.5618  14.5648  14.5678  14.5709  14.5740  14.5773  14.5806  14.5840
 GAMMAs            1.3952   1.3951   1.3949   1.3948   1.3947   1.3946   1.3945   1.3943
 SON VEL,M/SEC     1911.6   1919.0   1926.4   1933.8   1941.1   1948.4   1955.7   1962.9

 TRANSPORT PROPERTIES (GASES ONLY)
   CONDUCTIVITY IN UNITS OF MILLIWATTS/(CM)(K)

 VISC,MILLIPOISE  0.14952  0.15034  0.15115  0.15196  0.15278  0.15358  0.15439  0.15520

  WITH EQUILIBRIUM REACTIONS

 Cp, KJ/(KG)(K)   14.5618  14.5648  14.5678  14.5709  14.5740  14.5773  14.5806  14.5840
 CONDUCTIVITY      3.1587   3.1764   3.1942   3.2119   3.2296   3.2473   3.2650   3.2827
 PRANDTL NUMBER    0.6893   0.6893   0.6894   0.6894   0.6894   0.6894   0.6895   0.6895

  WITH FROZEN REACTIONS

 Cp, KJ/(KG)(K)   14.5618  14.5648  14.5678  14.5709  14.5740  14.5773  14.5806  14.5840
 CONDUCTIVITY      3.1587   3.1764   3.1942   3.2119   3.2296   3.2473   3.2650   3.2827
 PRANDTL NUMBER    0.6893   0.6893   0.6894   0.6894   0.6894   0.6894   0.6895   0.6895

 MASS FRACTIONS

 *H2              1.00000  1.00000  1.00000  1.00000  1.00000  1.00000  1.00000  1.00000

  * THERMODYNAMIC PROPERTIES FITTED TO 20000.K

 NOTE. WEIGHT FRACTION OF FUEL IN TOTAL FUELS AND OF OXIDANT IN TOTAL OXIDANTS









               THERMODYNAMIC EQUILIBRIUM PROPERTIES AT ASSIGNED

                           TEMPERATURE AND PRESSURE

 CASE =                

             REACTANT                    WT FRACTION      ENERGY      TEMP
                                          (SEE NOTE)     KJ/KG-MOL      K  
 FUEL        H2                           1.0000000         0.000      0.000
 OXIDANT     H2                           1.0000000         0.000      0.000

 O/F=    1.00000  %FUEL= 50.000000  R,EQ.RATIO= 0.000000  PHI,EQ.RATIO=-1.000000

 THERMODYNAMIC PROPERTIES

 P, BAR            132.00   132.00   132.00   132.00   132.00   132.00   132.00   132.00
 T, K              600.00   605.00   610.00   615.00   620.00   625.00   630.00   635.00
 RHO, KG/CU M    5.3340 0 5.2899 0 5.2465 0 5.2039 0 5.1619 0 5.1206 0 5.0800 0 5.0400 0
 H, KJ/KG         4370.65  4443.37  4516.11  4588.85  4661.62  4734.39  4807.18  4879.98
 U, KJ/KG         1895.95  1948.05  2000.17  2052.29  2104.43  2156.58  2208.75  2260.93
 G, KJ/KG        -28512.4 -28786.7 -29061.7 -29337.2 -29613.3 -29890.0 -30167.3 -30445.1
 S, KJ/(KG)(K)    54.8051  54.9258  55.0455  55.1643  55.2821  55.3990  55.5150  55.6301

 M, (1/n)           2.016    2.016    2.016    2.016    2.016    2.016    2.016    2.016
 (dLV/dLP)t      -1.00000 -1.00000 -1.00000 -1.00000 -1.00000 -1.00000 -1.00000 -1.00000
 (dLV/dLT)p        1.0000   1.0000   1.0000   1.0000   1.0000   1.0000   1.0000   1.0000
 Cp, KJ/(KG)(K)   14.5436  14.5460  14.5484  14.5509  14.5535  14.5562  14.5590  14.5618
 GAMMAs            1.3959   1.3958   1.3957   1.3956   1.3955   1.3954   1.3953   1.3952
 SON VEL,M/SEC     1858.6   1866.3   1873.9   1881.5   1889.1   1896.6   1904.1   1911.6

 TRANSPORT PROPERTIES (GASES ONLY)
   CONDUCTIVITY IN UNITS OF MILLIWATTS/(CM)(K)

 VISC,MILLIPOISE  0.14377  0.14460  0.14542  0.14625  0.14707  0.14789  0.14871  0.14952

  WITH EQUILIBRIUM REACTIONS

 Cp, KJ/(KG)(K)   14.5436  14.5460  14.5484  14.5509  14.5535  14.5562  14.5590  14.5618
 CONDUCTIVITY      3.0339   3.0519   3.0698   3.0876   3.1054   3.1232   3.1410   3.1587
 PRANDTL NUMBER    0.6892   0.6892   0.6892   0.6892   0.6892   0.6893   0.6893   0.6893

  WITH FROZEN REACTIONS

 Cp, KJ/(KG)(K)   14.5436  14.5460  14.5484  14.5509  14.5535  14.5562  14.5590  14.5618
 CONDUCTIVITY      3.0339   3.0519   3.0698   3.0876   3.1054   3.1232   3.1410   3.1587
 PRANDTL NUMBER    0.6892   0.6892   0.6892   0.6892   0.6892   0.6893   0.6893   0.6893

 MASS FRACTIONS

 *H2              1.00000  1.00000  1.00000  1.00000  1.00000  1.00000  1.00000  1.00000

  * THERMODYNAMIC PROPERTIES FITTED TO 20000.K

 NOTE. WEIGHT FRACTION OF FUEL IN TOTAL FUELS AND OF OXIDANT IN TOTAL OXIDANTS









               THERMODYNAMIC EQUILIBRIUM PROPERTIES AT ASSIGNED

                           TEMPERATURE AND PRESSURE

 CASE =                

             REACTANT                    WT FRACTION      ENERGY      TEMP
                                          (SEE NOTE)     KJ/KG-MOL      K  
 FUEL        H2                           1.0000000         0.000      0.000
 OXIDANT     H2                           1.0000000         0.000      0.000

 O/F=    1.00000  %FUEL= 50.000000  R,EQ.RATIO= 0.000000  PHI,EQ.RATIO=-1.000000

 THERMODYNAMIC PROPERTIES

 P, BAR            132.00   132.00   132.00   132.00   132.00   132.00   132.00   148.00
 T, K              640.00   645.00   650.00   655.00   660.00   665.00   670.00   600.00
 RHO, KG/CU M    5.0006 0 4.9619 0 4.9237 0 4.8861 0 4.8491 0 4.8126 0 4.7767 0 5.9805 0
 H, KJ/KG         4952.80  5025.63  5098.47  5171.34  5244.21  5317.11  5390.02  4370.65
 U, KJ/KG         2313.12  2365.33  2417.56  2469.79  2522.05  2574.32  2626.61  1895.95
 G, KJ/KG        -30723.6 -31002.6 -31282.2 -31562.3 -31843.0 -32124.2 -32406.0 -28229.3
 S, KJ/(KG)(K)    55.7443  55.8577  55.9702  56.0819  56.1927  56.3027  56.4120  54.3332

 M, (1/n)           2.016    2.016    2.016    2.016    2.016    2.016    2.016    2.016
 (dLV/dLP)t      -1.00000 -1.00000 -1.00000 -1.00000 -1.00000 -1.00000 -1.00000 -1.00000
 (dLV/dLT)p        1.0000   1.0000   1.0000   1.0000   1.0000   1.0000   1.0000   1.0000
 Cp, KJ/(KG)(K)   14.5648  14.5678  14.5709  14.5740  14.5773  14.5806  14.5840  14.5436
 GAMMAs            1.3951   1.3949   1.3948   1.3947   1.3946   1.3945   1.3943   1.3959
 SON VEL,M/SEC     1919.0   1926.4   1933.8   1941.1   1948.4   1955.7   1962.9   1858.6

 TRANSPORT PROPERTIES (GASES ONLY)
   CONDUCTIVITY IN UNITS OF MILLIWATTS/(CM)(K)

 VISC,MILLIPOISE  0.15034  0.15115  0.15196  0.15278  0.15358  0.15439  0.15520  0.14377

  WITH EQUILIBRIUM REACTIONS

 Cp, KJ/(KG)(K)   14.5648  14.5678  14.5709  14.5740  14.5773  14.5806  14.5840  14.5436
 CONDUCTIVITY      3.1764   3.1942   3.2119   3.2296   3.2473   3.2650   3.2827   3.0339
 PRANDTL NUMBER    0.6893   0.6894   0.6894   0.6894   0.6894   0.6895   0.6895   0.6892

  WITH FROZEN REACTIONS

 Cp, KJ/(KG)(K)   14.5648  14.5678  14.5709  14.5740  14.5773  14.5806  14.5840  14.5436
 CONDUCTIVITY      3.1764   3.1942   3.2119   3.2296   3.2473   3.2650   3.2827   3.0339
 PRANDTL NUMBER    0.6893   0.6894   0.6894   0.6894   0.6894   0.6895   0.6895   0.6892

 MASS FRACTIONS

 *H2              1.00000  1.00000  1.00000  1.00000  1.00000  1.00000  1.00000  1.00000

  * THERMODYNAMIC PROPERTIES FITTED TO 20000.K

 NOTE. WEIGHT FRACTION OF FUEL IN TOTAL FUELS AND OF OXIDANT IN TOTAL OXIDANTS









               THERMODYNAMIC EQUILIBRIUM PROPERTIES AT ASSIGNED

                           TEMPERATURE AND PRESSURE

 CASE =                

             REACTANT                    WT FRACTION      ENERGY      TEMP
                                          (SEE NOTE)     KJ/KG-MOL      K  
 FUEL        H2                           1.0000000         0.000      0.000
 OXIDANT     H2                           1.0000000         0.000      0.000

 O/F=    1.00000  %FUEL= 50.000000  R,EQ.RATIO= 0.000000  PHI,EQ.RATIO=-1.000000

 THERMODYNAMIC PROPERTIES

 P, BAR            148.00   148.00   148.00   148.00   148.00   148.00   148.00   148.00
 T, K              605.00   610.00   615.00   620.00   625.00   630.00   635.00   640.00
 RHO, KG/CU M    5.9311 0 5.8825 0 5.8347 0 5.7876 0 5.7413 0 5.6957 0 5.6509 0 5.6068 0
 H, KJ/KG         4443.37  4516.11  4588.85  4661.62  4734.39  4807.18  4879.98  4952.80
 U, KJ/KG         1948.05  2000.17  2052.29  2104.43  2156.58  2208.75  2260.93  2313.12
 G, KJ/KG        -28501.2 -28773.8 -29047.0 -29320.7 -29595.1 -29870.0 -30145.5 -30421.6
 S, KJ/(KG)(K)    54.4539  54.5736  54.6924  54.8102  54.9271  55.0431  55.1582  55.2725

 M, (1/n)           2.016    2.016    2.016    2.016    2.016    2.016    2.016    2.016
 (dLV/dLP)t      -1.00000 -1.00000 -1.00000 -1.00000 -1.00000 -1.00000 -1.00000 -1.00000
 (dLV/dLT)p        1.0000   1.0000   1.0000   1.0000   1.0000   1.0000   1.0000   1.0000
 Cp, KJ/(KG)(K)   14.5460  14.5484  14.5509  14.5535  14.5562  14.5590  14.5618  14.5648
 GAMMAs            1.3958   1.3957   1.3956   1.3955   1.3954   1.3953   1.3952   1.3951
 SON VEL,M/SEC     1866.3   1873.9   1881.5   1889.1   1896.6   1904.1   1911.6   1919.0

 TRANSPORT PROPERTIES (GASES ONLY)
   CONDUCTIVITY IN UNITS OF MILLIWATTS/(CM)(K)

 VISC,MILLIPOISE  0.14460  0.14542  0.14625  0.14707  0.14789  0.14871  0.14952  0.15034

  WITH EQUILIBRIUM REACTIONS

 Cp, KJ/(KG)(K)   14.5460  14.5484  14.5509  14.5535  14.5562  14.5590  14.5618  14.5648
 CONDUCTIVITY      3.0519   3.0698   3.0876   3.1054   3.1232   3.1410   3.1587   3.1764
 PRANDTL NUMBER    0.6892   0.6892   0.6892   0.6892   0.6893   0.6893   0.6893   0.6893

  WITH FROZEN REACTIONS

 Cp, KJ/(KG)(K)   14.5460  14.5484  14.5509  14.5535  14.5562  14.5590  14.5618  14.5648
 CONDUCTIVITY      3.0519   3.0698   3.0876   3.1054   3.1232   3.1410   3.1587   3.1764
 PRANDTL NUMBER    0.6892   0.6892   0.6892   0.6892   0.6893   0.6893   0.6893   0.6893

 MASS FRACTIONS

 *H2              1.00000  1.00000  1.00000  1.00000  1.00000  1.00000  1.00000  1.00000

  * THERMODYNAMIC PROPERTIES FITTED TO 20000.K

 NOTE. WEIGHT FRACTION OF FUEL IN TOTAL FUELS AND OF OXIDANT IN TOTAL OXIDANTS









               THERMODYNAMIC EQUILIBRIUM PROPERTIES AT ASSIGNED

                           TEMPERATURE AND PRESSURE

 CASE =                

             REACTANT                    WT FRACTION      ENERGY      TEMP
                                          (SEE NOTE)     KJ/KG-MOL      K  
 FUEL        H2                           1.0000000         0.000      0.000
 OXIDANT     H2                           1.0000000         0.000      0.000

 O/F=    1.00000  %FUEL= 50.000000  R,EQ.RATIO= 0.000000  PHI,EQ.RATIO=-1.000000

 THERMODYNAMIC PROPERTIES

 P, BAR            148.00   148.00   148.00   148.00   148.00   148.00   165.00   165.00
 T, K              645.00   650.00   655.00   660.00   665.00   670.00   600.00   605.00
 RHO, KG/CU M    5.5633 0 5.5205 0 5.4784 0 5.4369 0 5.3960 0 5.3557 0 6.6675 0 6.6124 0
 H, KJ/KG         5025.63  5098.47  5171.34  5244.21  5317.11  5390.02  4370.65  4443.37
 U, KJ/KG         2365.33  2417.56  2469.79  2522.05  2574.32  2626.61  1895.95  1948.05
 G, KJ/KG        -30698.2 -30975.4 -31253.2 -31531.5 -31810.4 -32089.8 -27960.2 -28229.9
 S, KJ/(KG)(K)    55.3858  55.4983  55.6100  55.7208  55.8309  55.9401  53.8848  54.0054

 M, (1/n)           2.016    2.016    2.016    2.016    2.016    2.016    2.016    2.016
 (dLV/dLP)t      -1.00000 -1.00000 -1.00000 -1.00000 -1.00000 -1.00000 -1.00000 -1.00000
 (dLV/dLT)p        1.0000   1.0000   1.0000   1.0000   1.0000   1.0000   1.0000   1.0000
 Cp, KJ/(KG)(K)   14.5678  14.5709  14.5740  14.5773  14.5806  14.5840  14.5436  14.5460
 GAMMAs            1.3949   1.3948   1.3947   1.3946   1.3945   1.3943   1.3959   1.3958
 SON VEL,M/SEC     1926.4   1933.8   1941.1   1948.4   1955.7   1962.9   1858.6   1866.3

 TRANSPORT PROPERTIES (GASES ONLY)
   CONDUCTIVITY IN UNITS OF MILLIWATTS/(CM)(K)

 VISC,MILLIPOISE  0.15115  0.15196  0.15278  0.15358  0.15439  0.15520  0.14377  0.14460

  WITH EQUILIBRIUM REACTIONS

 Cp, KJ/(KG)(K)   14.5678  14.5709  14.5740  14.5773  14.5806  14.5840  14.5436  14.5460
 CONDUCTIVITY      3.1942   3.2119   3.2296   3.2473   3.2650   3.2827   3.0339   3.0519
 PRANDTL NUMBER    0.6894   0.6894   0.6894   0.6894   0.6895   0.6895   0.6892   0.6892

  WITH FROZEN REACTIONS

 Cp, KJ/(KG)(K)   14.5678  14.5709  14.5740  14.5773  14.5806  14.5840  14.5436  14.5460
 CONDUCTIVITY      3.1942   3.2119   3.2296   3.2473   3.2650   3.2827   3.0339   3.0519
 PRANDTL NUMBER    0.6894   0.6894   0.6894   0.6894   0.6895   0.6895   0.6892   0.6892

 MASS FRACTIONS

 *H2              1.00000  1.00000  1.00000  1.00000  1.00000  1.00000  1.00000  1.00000

  * THERMODYNAMIC PROPERTIES FITTED TO 20000.K

 NOTE. WEIGHT FRACTION OF FUEL IN TOTAL FUELS AND OF OXIDANT IN TOTAL OXIDANTS









               THERMODYNAMIC EQUILIBRIUM PROPERTIES AT ASSIGNED

                           TEMPERATURE AND PRESSURE

 CASE =                

             REACTANT                    WT FRACTION      ENERGY      TEMP
                                          (SEE NOTE)     KJ/KG-MOL      K  
 FUEL        H2                           1.0000000         0.000      0.000
 OXIDANT     H2                           1.0000000         0.000      0.000

 O/F=    1.00000  %FUEL= 50.000000  R,EQ.RATIO= 0.000000  PHI,EQ.RATIO=-1.000000

 THERMODYNAMIC PROPERTIES

 P, BAR            165.00   165.00   165.00   165.00   165.00   165.00   165.00   165.00
 T, K              610.00   615.00   620.00   625.00   630.00   635.00   640.00   645.00
 RHO, KG/CU M    6.5582 0 6.5049 0 6.4524 0 6.4008 0 6.3500 0 6.3000 0 6.2508 0 6.2023 0
 H, KJ/KG         4516.11  4588.85  4661.62  4734.39  4807.18  4879.98  4952.80  5025.63
 U, KJ/KG         2000.17  2052.29  2104.43  2156.58  2208.75  2260.93  2313.12  2365.33
 G, KJ/KG        -28500.2 -28771.2 -29042.7 -29314.8 -29587.5 -29860.7 -30134.6 -30409.0
 S, KJ/(KG)(K)    54.1252  54.2439  54.3618  54.4787  54.5947  54.7098  54.8240  54.9373

 M, (1/n)           2.016    2.016    2.016    2.016    2.016    2.016    2.016    2.016
 (dLV/dLP)t      -1.00000 -1.00000 -1.00000 -1.00000 -1.00000 -1.00000 -1.00000 -1.00000
 (dLV/dLT)p        1.0000   1.0000   1.0000   1.0000   1.0000   1.0000   1.0000   1.0000
 Cp, KJ/(KG)(K)   14.5484  14.5509  14.5535  14.5562  14.5590  14.5618  14.5648  14.5678
 GAMMAs            1.3957   1.3956   1.3955   1.3954   1.3953   1.3952   1.3951   1.3949
 SON VEL,M/SEC     1873.9   1881.5   1889.1   1896.6   1904.1   1911.6   1919.0   1926.4

 TRANSPORT PROPERTIES (GASES ONLY)
   CONDUCTIVITY IN UNITS OF MILLIWATTS/(CM)(K)

 VISC,MILLIPOISE  0.14542  0.14625  0.14707  0.14789  0.14871  0.14952  0.15034  0.15115

  WITH EQUILIBRIUM REACTIONS

 Cp, KJ/(KG)(K)   14.5484  14.5509  14.5535  14.5562  14.5590  14.5618  14.5648  14.5678
 CONDUCTIVITY      3.0698   3.0876   3.1054   3.1232   3.1410   3.1587   3.1764   3.1942
 PRANDTL NUMBER    0.6892   0.6892   0.6892   0.6893   0.6893   0.6893   0.6893   0.6894

  WITH FROZEN REACTIONS

 Cp, KJ/(KG)(K)   14.5484  14.5509  14.5535  14.5562  14.5590  14.5618  14.5648  14.5678
 CONDUCTIVITY      3.0698   3.0876   3.1054   3.1232   3.1410   3.1587   3.1764   3.1942
 PRANDTL NUMBER    0.6892   0.6892   0.6892   0.6893   0.6893   0.6893   0.6893   0.6894

 MASS FRACTIONS

 *H2              1.00000  1.00000  1.00000  1.00000  1.00000  1.00000  1.00000  1.00000

  * THERMODYNAMIC PROPERTIES FITTED TO 20000.K

 NOTE. WEIGHT FRACTION OF FUEL IN TOTAL FUELS AND OF OXIDANT IN TOTAL OXIDANTS









               THERMODYNAMIC EQUILIBRIUM PROPERTIES AT ASSIGNED

                           TEMPERATURE AND PRESSURE

 CASE =                

             REACTANT                    WT FRACTION      ENERGY      TEMP
                                          (SEE NOTE)     KJ/KG-MOL      K  
 FUEL        H2                           1.0000000         0.000      0.000
 OXIDANT     H2                           1.0000000         0.000      0.000

 O/F=    1.00000  %FUEL= 50.000000  R,EQ.RATIO= 0.000000  PHI,EQ.RATIO=-1.000000

 THERMODYNAMIC PROPERTIES

 P, BAR            165.00   165.00   165.00   165.00   165.00   180.00   180.00   180.00
 T, K              650.00   655.00   660.00   665.00   670.00   600.00   605.00   610.00
 RHO, KG/CU M    6.1546 0 6.1076 0 6.0614 0 6.0158 0 5.9709 0 7.2736 0 7.2135 0 7.1544 0
 H, KJ/KG         5098.47  5171.34  5244.21  5317.11  5390.02  4370.65  4443.37  4516.11
 U, KJ/KG         2417.56  2469.79  2522.05  2574.32  2626.61  1895.95  1948.05  2000.17
 G, KJ/KG        -30683.9 -30959.5 -31235.5 -31512.2 -31789.4 -27744.9 -28012.8 -28281.3
 S, KJ/(KG)(K)    55.0498  55.1615  55.2724  55.3824  55.4916  53.5259  53.6466  53.7663

 M, (1/n)           2.016    2.016    2.016    2.016    2.016    2.016    2.016    2.016
 (dLV/dLP)t      -1.00000 -1.00000 -1.00000 -1.00000 -1.00000 -1.00000 -1.00000 -1.00000
 (dLV/dLT)p        1.0000   1.0000   1.0000   1.0000   1.0000   1.0000   1.0000   1.0000
 Cp, KJ/(KG)(K)   14.5709  14.5740  14.5773  14.5806  14.5840  14.5436  14.5460  14.5484
 GAMMAs            1.3948   1.3947   1.3946   1.3945   1.3943   1.3959   1.3958   1.3957
 SON VEL,M/SEC     1933.8   1941.1   1948.4   1955.7   1962.9   1858.6   1866.3   1873.9

 TRANSPORT PROPERTIES (GASES ONLY)
   CONDUCTIVITY IN UNITS OF MILLIWATTS/(CM)(K)

 VISC,MILLIPOISE  0.15196  0.15278  0.15358  0.15439  0.15520  0.14377  0.14460  0.14542

  WITH EQUILIBRIUM REACTIONS

 Cp, KJ/(KG)(K)   14.5709  14.5740  14.5773  14.5806  14.5840  14.5436  14.5460  14.5484
 CONDUCTIVITY      3.2119   3.2296   3.2473   3.2650   3.2827   3.0339   3.0519   3.0698
 PRANDTL NUMBER    0.6894   0.6894   0.6894   0.6895   0.6895   0.6892   0.6892   0.6892

  WITH FROZEN REACTIONS

 Cp, KJ/(KG)(K)   14.5709  14.5740  14.5773  14.5806  14.5840  14.5436  14.5460  14.5484
 CONDUCTIVITY      3.2119   3.2296   3.2473   3.2650   3.2827   3.0339   3.0519   3.0698
 PRANDTL NUMBER    0.6894   0.6894   0.6894   0.6895   0.6895   0.6892   0.6892   0.6892

 MASS FRACTIONS

 *H2              1.00000  1.00000  1.00000  1.00000  1.00000  1.00000  1.00000  1.00000

  * THERMODYNAMIC PROPERTIES FITTED TO 20000.K

 NOTE. WEIGHT FRACTION OF FUEL IN TOTAL FUELS AND OF OXIDANT IN TOTAL OXIDANTS









               THERMODYNAMIC EQUILIBRIUM PROPERTIES AT ASSIGNED

                           TEMPERATURE AND PRESSURE

 CASE =                

             REACTANT                    WT FRACTION      ENERGY      TEMP
                                          (SEE NOTE)     KJ/KG-MOL      K  
 FUEL        H2                           1.0000000         0.000      0.000
 OXIDANT     H2                           1.0000000         0.000      0.000

 O/F=    1.00000  %FUEL= 50.000000  R,EQ.RATIO= 0.000000  PHI,EQ.RATIO=-1.000000

 THERMODYNAMIC PROPERTIES

 P, BAR            180.00   180.00   180.00   180.00   180.00   180.00   180.00   180.00
 T, K              615.00   620.00   625.00   630.00   635.00   640.00   645.00   650.00
 RHO, KG/CU M    7.0962 0 7.0390 0 6.9827 0 6.9273 0 6.8727 0 6.8190 0 6.7662 0 6.7141 0
 H, KJ/KG         4588.85  4661.62  4734.39  4807.18  4879.98  4952.80  5025.63  5098.47
 U, KJ/KG         2052.29  2104.43  2156.58  2208.75  2260.93  2313.12  2365.33  2417.56
 G, KJ/KG        -28550.4 -28820.2 -29090.5 -29361.4 -29632.8 -29904.9 -30177.5 -30450.7
 S, KJ/(KG)(K)    53.8850  54.0029  54.1198  54.2358  54.3509  54.4651  54.5785  54.6910

 M, (1/n)           2.016    2.016    2.016    2.016    2.016    2.016    2.016    2.016
 (dLV/dLP)t      -1.00000 -1.00000 -1.00000 -1.00000 -1.00000 -1.00000 -1.00000 -1.00000
 (dLV/dLT)p        1.0000   1.0000   1.0000   1.0000   1.0000   1.0000   1.0000   1.0000
 Cp, KJ/(KG)(K)   14.5509  14.5535  14.5562  14.5590  14.5618  14.5648  14.5678  14.5709
 GAMMAs            1.3956   1.3955   1.3954   1.3953   1.3952   1.3951   1.3949   1.3948
 SON VEL,M/SEC     1881.5   1889.1   1896.6   1904.1   1911.6   1919.0   1926.4   1933.8

 TRANSPORT PROPERTIES (GASES ONLY)
   CONDUCTIVITY IN UNITS OF MILLIWATTS/(CM)(K)

 VISC,MILLIPOISE  0.14625  0.14707  0.14789  0.14871  0.14952  0.15034  0.15115  0.15196

  WITH EQUILIBRIUM REACTIONS

 Cp, KJ/(KG)(K)   14.5509  14.5535  14.5562  14.5590  14.5618  14.5648  14.5678  14.5709
 CONDUCTIVITY      3.0876   3.1054   3.1232   3.1410   3.1587   3.1764   3.1942   3.2119
 PRANDTL NUMBER    0.6892   0.6892   0.6893   0.6893   0.6893   0.6893   0.6894   0.6894

  WITH FROZEN REACTIONS

 Cp, KJ/(KG)(K)   14.5509  14.5535  14.5562  14.5590  14.5618  14.5648  14.5678  14.5709
 CONDUCTIVITY      3.0876   3.1054   3.1232   3.1410   3.1587   3.1764   3.1942   3.2119
 PRANDTL NUMBER    0.6892   0.6892   0.6893   0.6893   0.6893   0.6893   0.6894   0.6894

 MASS FRACTIONS

 *H2              1.00000  1.00000  1.00000  1.00000  1.00000  1.00000  1.00000  1.00000

  * THERMODYNAMIC PROPERTIES FITTED TO 20000.K

 NOTE. WEIGHT FRACTION OF FUEL IN TOTAL FUELS AND OF OXIDANT IN TOTAL OXIDANTS









               THERMODYNAMIC EQUILIBRIUM PROPERTIES AT ASSIGNED

                           TEMPERATURE AND PRESSURE

 CASE =                

             REACTANT                    WT FRACTION      ENERGY      TEMP
                                          (SEE NOTE)     KJ/KG-MOL      K  
 FUEL        H2                           1.0000000         0.000      0.000
 OXIDANT     H2                           1.0000000         0.000      0.000

 O/F=    1.00000  %FUEL= 50.000000  R,EQ.RATIO= 0.000000  PHI,EQ.RATIO=-1.000000

 THERMODYNAMIC PROPERTIES

 P, BAR            180.00   180.00   180.00   180.00   200.00   200.00   200.00   200.00
 T, K              655.00   660.00   665.00   670.00   600.00   605.00   610.00   615.00
 RHO, KG/CU M    6.6629 0 6.6124 0 6.5627 0 6.5137 0 8.0818 0 8.0150 0 7.9493 0 7.8847 0
 H, KJ/KG         5171.34  5244.21  5317.11  5390.02  4370.65  4443.37  4516.11  4588.85
 U, KJ/KG         2469.79  2522.05  2574.32  2626.61  1895.95  1948.05  2000.17  2052.29
 G, KJ/KG        -30724.4 -30998.7 -31273.5 -31548.9 -27484.1 -27749.9 -28016.2 -28283.2
 S, KJ/(KG)(K)    54.8026  54.9135  55.0235  55.1327  53.0913  53.2120  53.3317  53.4505

 M, (1/n)           2.016    2.016    2.016    2.016    2.016    2.016    2.016    2.016
 (dLV/dLP)t      -1.00000 -1.00000 -1.00000 -1.00000 -1.00000 -1.00000 -1.00000 -1.00000
 (dLV/dLT)p        1.0000   1.0000   1.0000   1.0000   1.0000   1.0000   1.0000   1.0000
 Cp, KJ/(KG)(K)   14.5740  14.5773  14.5806  14.5840  14.5436  14.5460  14.5484  14.5509
 GAMMAs            1.3947   1.3946   1.3945   1.3943   1.3959   1.3958   1.3957   1.3956
 SON VEL,M/SEC     1941.1   1948.4   1955.7   1962.9   1858.6   1866.3   1873.9   1881.5

 TRANSPORT PROPERTIES (GASES ONLY)
   CONDUCTIVITY IN UNITS OF MILLIWATTS/(CM)(K)

 VISC,MILLIPOISE  0.15278  0.15358  0.15439  0.15520  0.14377  0.14460  0.14542  0.14625

  WITH EQUILIBRIUM REACTIONS

 Cp, KJ/(KG)(K)   14.5740  14.5773  14.5806  14.5840  14.5436  14.5460  14.5484  14.5509
 CONDUCTIVITY      3.2296   3.2473   3.2650   3.2827   3.0339   3.0519   3.0698   3.0876
 PRANDTL NUMBER    0.6894   0.6894   0.6895   0.6895   0.6892   0.6892   0.6892   0.6892

  WITH FROZEN REACTIONS

 Cp, KJ/(KG)(K)   14.5740  14.5773  14.5806  14.5840  14.5436  14.5460  14.5484  14.5509
 CONDUCTIVITY      3.2296   3.2473   3.2650   3.2827   3.0339   3.0519   3.0698   3.0876
 PRANDTL NUMBER    0.6894   0.6894   0.6895   0.6895   0.6892   0.6892   0.6892   0.6892

 MASS FRACTIONS

 *H2              1.00000  1.00000  1.00000  1.00000  1.00000  1.00000  1.00000  1.00000

  * THERMODYNAMIC PROPERTIES FITTED TO 20000.K

 NOTE. WEIGHT FRACTION OF FUEL IN TOTAL FUELS AND OF OXIDANT IN TOTAL OXIDANTS









               THERMODYNAMIC EQUILIBRIUM PROPERTIES AT ASSIGNED

                           TEMPERATURE AND PRESSURE

 CASE =                

             REACTANT                    WT FRACTION      ENERGY      TEMP
                                          (SEE NOTE)     KJ/KG-MOL      K  
 FUEL        H2                           1.0000000         0.000      0.000
 OXIDANT     H2                           1.0000000         0.000      0.000

 O/F=    1.00000  %FUEL= 50.000000  R,EQ.RATIO= 0.000000  PHI,EQ.RATIO=-1.000000

 THERMODYNAMIC PROPERTIES

 P, BAR            200.00   200.00   200.00   200.00   200.00   200.00   200.00   200.00
 T, K              620.00   625.00   630.00   635.00   640.00   645.00   650.00   655.00
 RHO, KG/CU M    7.8211 0 7.7585 0 7.6970 0 7.6364 0 7.5767 0 7.5180 0 7.4601 0 7.4032 0
 H, KJ/KG         4661.62  4734.39  4807.18  4879.98  4952.80  5025.63  5098.47  5171.34
 U, KJ/KG         2104.43  2156.58  2208.75  2260.93  2313.12  2365.33  2417.56  2469.79
 G, KJ/KG        -28550.7 -28818.9 -29087.6 -29356.9 -29626.8 -29897.2 -30168.2 -30439.7
 S, KJ/(KG)(K)    53.5683  53.6852  53.8012  53.9163  54.0305  54.1439  54.2564  54.3681

 M, (1/n)           2.016    2.016    2.016    2.016    2.016    2.016    2.016    2.016
 (dLV/dLP)t      -1.00000 -1.00000 -1.00000 -1.00000 -1.00000 -1.00000 -1.00000 -1.00000
 (dLV/dLT)p        1.0000   1.0000   1.0000   1.0000   1.0000   1.0000   1.0000   1.0000
 Cp, KJ/(KG)(K)   14.5535  14.5562  14.5590  14.5618  14.5648  14.5678  14.5709  14.5740
 GAMMAs            1.3955   1.3954   1.3953   1.3952   1.3951   1.3949   1.3948   1.3947
 SON VEL,M/SEC     1889.1   1896.6   1904.1   1911.6   1919.0   1926.4   1933.8   1941.1

 TRANSPORT PROPERTIES (GASES ONLY)
   CONDUCTIVITY IN UNITS OF MILLIWATTS/(CM)(K)

 VISC,MILLIPOISE  0.14707  0.14789  0.14871  0.14952  0.15034  0.15115  0.15196  0.15278

  WITH EQUILIBRIUM REACTIONS

 Cp, KJ/(KG)(K)   14.5535  14.5562  14.5590  14.5618  14.5648  14.5678  14.5709  14.5740
 CONDUCTIVITY      3.1054   3.1232   3.1410   3.1587   3.1764   3.1942   3.2119   3.2296
 PRANDTL NUMBER    0.6892   0.6893   0.6893   0.6893   0.6893   0.6894   0.6894   0.6894

  WITH FROZEN REACTIONS

 Cp, KJ/(KG)(K)   14.5535  14.5562  14.5590  14.5618  14.5648  14.5678  14.5709  14.5740
 CONDUCTIVITY      3.1054   3.1232   3.1410   3.1587   3.1764   3.1942   3.2119   3.2296
 PRANDTL NUMBER    0.6892   0.6893   0.6893   0.6893   0.6893   0.6894   0.6894   0.6894

 MASS FRACTIONS

 *H2              1.00000  1.00000  1.00000  1.00000  1.00000  1.00000  1.00000  1.00000

  * THERMODYNAMIC PROPERTIES FITTED TO 20000.K

 NOTE. WEIGHT FRACTION OF FUEL IN TOTAL FUELS AND OF OXIDANT IN TOTAL OXIDANTS









               THERMODYNAMIC EQUILIBRIUM PROPERTIES AT ASSIGNED

                           TEMPERATURE AND PRESSURE

 CASE =                

             REACTANT                    WT FRACTION      ENERGY      TEMP
                                          (SEE NOTE)     KJ/KG-MOL      K  
 FUEL        H2                           1.0000000         0.000      0.000
 OXIDANT     H2                           1.0000000         0.000      0.000

 O/F=    1.00000  %FUEL= 50.000000  R,EQ.RATIO= 0.000000  PHI,EQ.RATIO=-1.000000

 THERMODYNAMIC PROPERTIES

 P, BAR            200.00   200.00   200.00   225.00   225.00   225.00   225.00   225.00
 T, K              660.00   665.00   670.00   600.00   605.00   610.00   615.00   620.00
 RHO, KG/CU M    7.3471 0 7.2919 0 7.2374 0 9.0920 0 9.0169 0 8.9430 0 8.8703 0 8.7987 0
 H, KJ/KG         5244.21  5317.11  5390.02  4370.65  4443.37  4516.11  4588.85  4661.62
 U, KJ/KG         2522.05  2574.32  2626.61  1895.95  1948.05  2000.17  2052.29  2104.43
 G, KJ/KG        -30711.9 -30984.5 -31257.8 -27192.7 -27456.0 -27719.9 -27984.4 -28249.5
 S, KJ/(KG)(K)    54.4789  54.5889  54.6982  52.6055  52.7262  52.8459  52.9647  53.0825

 M, (1/n)           2.016    2.016    2.016    2.016    2.016    2.016    2.016    2.016
 (dLV/dLP)t      -1.00000 -1.00000 -1.00000 -1.00000 -1.00000 -1.00000 -1.00000 -1.00000
 (dLV/dLT)p        1.0000   1.0000   1.0000   1.0000   1.0000   1.0000   1.0000   1.0000
 Cp, KJ/(KG)(K)   14.5773  14.5806  14.5840  14.5436  14.5460  14.5484  14.5509  14.5535
 GAMMAs            1.3946   1.3945   1.3943   1.3959   1.3958   1.3957   1.3956   1.3955
 SON VEL,M/SEC     1948.4   1955.7   1962.9   1858.6   1866.3   1873.9   1881.5   1889.1

 TRANSPORT PROPERTIES (GASES ONLY)
   CONDUCTIVITY IN UNITS OF MILLIWATTS/(CM)(K)

 VISC,MILLIPOISE  0.15358  0.15439  0.15520  0.14377  0.14460  0.14542  0.14625  0.14707

  WITH EQUILIBRIUM REACTIONS

 Cp, KJ/(KG)(K)   14.5773  14.5806  14.5840  14.5436  14.5460  14.5484  14.5509  14.5535
 CONDUCTIVITY      3.2473   3.2650   3.2827   3.0339   3.0519   3.0698   3.0876   3.1054
 PRANDTL NUMBER    0.6894   0.6895   0.6895   0.6892   0.6892   0.6892   0.6892   0.6892

  WITH FROZEN REACTIONS

 Cp, KJ/(KG)(K)   14.5773  14.5806  14.5840  14.5436  14.5460  14.5484  14.5509  14.5535
 CONDUCTIVITY      3.2473   3.2650   3.2827   3.0339   3.0519   3.0698   3.0876   3.1054
 PRANDTL NUMBER    0.6894   0.6895   0.6895   0.6892   0.6892   0.6892   0.6892   0.6892

 MASS FRACTIONS

 *H2              1.00000  1.00000  1.00000  1.00000  1.00000  1.00000  1.00000  1.00000

  * THERMODYNAMIC PROPERTIES FITTED TO 20000.K

 NOTE. WEIGHT FRACTION OF FUEL IN TOTAL FUELS AND OF OXIDANT IN TOTAL OXIDANTS









               THERMODYNAMIC EQUILIBRIUM PROPERTIES AT ASSIGNED

                           TEMPERATURE AND PRESSURE

 CASE =                

             REACTANT                    WT FRACTION      ENERGY      TEMP
                                          (SEE NOTE)     KJ/KG-MOL      K  
 FUEL        H2                           1.0000000         0.000      0.000
 OXIDANT     H2                           1.0000000         0.000      0.000

 O/F=    1.00000  %FUEL= 50.000000  R,EQ.RATIO= 0.000000  PHI,EQ.RATIO=-1.000000

 THERMODYNAMIC PROPERTIES

 P, BAR            225.00   225.00   225.00   225.00   225.00   225.00   225.00   225.00
 T, K              625.00   630.00   635.00   640.00   645.00   650.00   655.00   660.00
 RHO, KG/CU M    8.7284 0 8.6591 0 8.5909 0 8.5238 0 8.4577 0 8.3926 0 8.3286 0 8.2655 0
 H, KJ/KG         4734.39  4807.18  4879.98  4952.80  5025.63  5098.47  5171.34  5244.21
 U, KJ/KG         2156.58  2208.75  2260.93  2313.12  2365.33  2417.56  2469.79  2522.05
 G, KJ/KG        -28515.2 -28781.5 -29048.4 -29315.8 -29583.8 -29852.4 -30121.6 -30391.2
 S, KJ/(KG)(K)    53.1994  53.3154  53.4305  53.5447  53.6581  53.7706  53.8823  53.9931

 M, (1/n)           2.016    2.016    2.016    2.016    2.016    2.016    2.016    2.016
 (dLV/dLP)t      -1.00000 -1.00000 -1.00000 -1.00000 -1.00000 -1.00000 -1.00000 -1.00000
 (dLV/dLT)p        1.0000   1.0000   1.0000   1.0000   1.0000   1.0000   1.0000   1.0000
 Cp, KJ/(KG)(K)   14.5562  14.5590  14.5618  14.5648  14.5678  14.5709  14.5740  14.5773
 GAMMAs            1.3954   1.3953   1.3952   1.3951   1.3949   1.3948   1.3947   1.3946
 SON VEL,M/SEC     1896.6   1904.1   1911.6   1919.0   1926.4   1933.8   1941.1   1948.4

 TRANSPORT PROPERTIES (GASES ONLY)
   CONDUCTIVITY IN UNITS OF MILLIWATTS/(CM)(K)

 VISC,MILLIPOISE  0.14789  0.14871  0.14952  0.15034  0.15115  0.15196  0.15278  0.15358

  WITH EQUILIBRIUM REACTIONS

 Cp, KJ/(KG)(K)   14.5562  14.5590  14.5618  14.5648  14.5678  14.5709  14.5740  14.5773
 CONDUCTIVITY      3.1232   3.1410   3.1587   3.1764   3.1942   3.2119   3.2296   3.2473
 PRANDTL NUMBER    0.6893   0.6893   0.6893   0.6893   0.6894   0.6894   0.6894   0.6894

  WITH FROZEN REACTIONS

 Cp, KJ/(KG)(K)   14.5562  14.5590  14.5618  14.5648  14.5678  14.5709  14.5740  14.5773
 CONDUCTIVITY      3.1232   3.1410   3.1587   3.1764   3.1942   3.2119   3.2296   3.2473
 PRANDTL NUMBER    0.6893   0.6893   0.6893   0.6893   0.6894   0.6894   0.6894   0.6894

 MASS FRACTIONS

 *H2              1.00000  1.00000  1.00000  1.00000  1.00000  1.00000  1.00000  1.00000

  * THERMODYNAMIC PROPERTIES FITTED TO 20000.K

 NOTE. WEIGHT FRACTION OF FUEL IN TOTAL FUELS AND OF OXIDANT IN TOTAL OXIDANTS









               THERMODYNAMIC EQUILIBRIUM PROPERTIES AT ASSIGNED

                           TEMPERATURE AND PRESSURE

 CASE =                

             REACTANT                    WT FRACTION      ENERGY      TEMP
                                          (SEE NOTE)     KJ/KG-MOL      K  
 FUEL        H2                           1.0000000         0.000      0.000
 OXIDANT     H2                           1.0000000         0.000      0.000

 O/F=    1.00000  %FUEL= 50.000000  R,EQ.RATIO= 0.000000  PHI,EQ.RATIO=-1.000000

 THERMODYNAMIC PROPERTIES

 P, BAR            225.00   225.00   250.00   250.00   250.00   250.00   250.00   250.00
 T, K              665.00   670.00   600.00   605.00   610.00   615.00   620.00   625.00
 RHO, KG/CU M    8.2033 0 8.1421 0 1.0102 1 1.0019 1 9.9366 0 9.8559 0 9.7764 0 9.6982 0
 H, KJ/KG         5317.11  5390.02  4370.65  4443.37  4516.11  4588.85  4661.62  4734.39
 U, KJ/KG         2574.32  2626.61  1895.95  1948.05  2000.17  2052.29  2104.43  2156.58
 G, KJ/KG        -30661.5 -30932.3 -26931.9 -27193.1 -27454.8 -27717.2 -27980.1 -28243.6
 S, KJ/(KG)(K)    54.1031  54.2124  52.1710  52.2916  52.4114  52.5301  52.6480  52.7649

 M, (1/n)           2.016    2.016    2.016    2.016    2.016    2.016    2.016    2.016
 (dLV/dLP)t      -1.00000 -1.00000 -1.00000 -1.00000 -1.00000 -1.00000 -1.00000 -1.00000
 (dLV/dLT)p        1.0000   1.0000   1.0000   1.0000   1.0000   1.0000   1.0000   1.0000
 Cp, KJ/(KG)(K)   14.5806  14.5840  14.5436  14.5460  14.5484  14.5509  14.5535  14.5562
 GAMMAs            1.3945   1.3943   1.3959   1.3958   1.3957   1.3956   1.3955   1.3954
 SON VEL,M/SEC     1955.7   1962.9   1858.6   1866.3   1873.9   1881.5   1889.1   1896.6

 TRANSPORT PROPERTIES (GASES ONLY)
   CONDUCTIVITY IN UNITS OF MILLIWATTS/(CM)(K)

 VISC,MILLIPOISE  0.15439  0.15520  0.14377  0.14460  0.14542  0.14625  0.14707  0.14789

  WITH EQUILIBRIUM REACTIONS

 Cp, KJ/(KG)(K)   14.5806  14.5840  14.5436  14.5460  14.5484  14.5509  14.5535  14.5562
 CONDUCTIVITY      3.2650   3.2827   3.0339   3.0519   3.0698   3.0876   3.1054   3.1232
 PRANDTL NUMBER    0.6895   0.6895   0.6892   0.6892   0.6892   0.6892   0.6892   0.6893

  WITH FROZEN REACTIONS

 Cp, KJ/(KG)(K)   14.5806  14.5840  14.5436  14.5460  14.5484  14.5509  14.5535  14.5562
 CONDUCTIVITY      3.2650   3.2827   3.0339   3.0519   3.0698   3.0876   3.1054   3.1232
 PRANDTL NUMBER    0.6895   0.6895   0.6892   0.6892   0.6892   0.6892   0.6892   0.6893

 MASS FRACTIONS

 *H2              1.00000  1.00000  1.00000  1.00000  1.00000  1.00000  1.00000  1.00000

  * THERMODYNAMIC PROPERTIES FITTED TO 20000.K

 NOTE. WEIGHT FRACTION OF FUEL IN TOTAL FUELS AND OF OXIDANT IN TOTAL OXIDANTS









               THERMODYNAMIC EQUILIBRIUM PROPERTIES AT ASSIGNED

                           TEMPERATURE AND PRESSURE

 CASE =                

             REACTANT                    WT FRACTION      ENERGY      TEMP
                                          (SEE NOTE)     KJ/KG-MOL      K  
 FUEL        H2                           1.0000000         0.000      0.000
 OXIDANT     H2                           1.0000000         0.000      0.000

 O/F=    1.00000  %FUEL= 50.000000  R,EQ.RATIO= 0.000000  PHI,EQ.RATIO=-1.000000

 THERMODYNAMIC PROPERTIES

 P, BAR            250.00   250.00   250.00   250.00   250.00   250.00   250.00   250.00
 T, K              630.00   635.00   640.00   645.00   650.00   655.00   660.00   665.00
 RHO, KG/CU M    9.6212 0 9.5454 0 9.4709 0 9.3974 0 9.3252 0 9.2540 0 9.1839 0 9.1148 0
 H, KJ/KG         4807.18  4879.98  4952.80  5025.63  5098.47  5171.34  5244.21  5317.11
 U, KJ/KG         2208.75  2260.93  2313.12  2365.33  2417.56  2469.79  2522.05  2574.32
 G, KJ/KG        -28507.8 -28772.5 -29037.7 -29303.6 -29570.0 -29836.9 -30104.4 -30372.5
 S, KJ/(KG)(K)    52.8809  52.9960  53.1102  53.2235  53.3360  53.4477  53.5586  53.6686

 M, (1/n)           2.016    2.016    2.016    2.016    2.016    2.016    2.016    2.016
 (dLV/dLP)t      -1.00000 -1.00000 -1.00000 -1.00000 -1.00000 -1.00000 -1.00000 -1.00000
 (dLV/dLT)p        1.0000   1.0000   1.0000   1.0000   1.0000   1.0000   1.0000   1.0000
 Cp, KJ/(KG)(K)   14.5590  14.5618  14.5648  14.5678  14.5709  14.5740  14.5773  14.5806
 GAMMAs            1.3953   1.3952   1.3951   1.3949   1.3948   1.3947   1.3946   1.3945
 SON VEL,M/SEC     1904.1   1911.6   1919.0   1926.4   1933.8   1941.1   1948.4   1955.7

 TRANSPORT PROPERTIES (GASES ONLY)
   CONDUCTIVITY IN UNITS OF MILLIWATTS/(CM)(K)

 VISC,MILLIPOISE  0.14871  0.14952  0.15034  0.15115  0.15196  0.15278  0.15358  0.15439

  WITH EQUILIBRIUM REACTIONS

 Cp, KJ/(KG)(K)   14.5590  14.5618  14.5648  14.5678  14.5709  14.5740  14.5773  14.5806
 CONDUCTIVITY      3.1410   3.1587   3.1764   3.1942   3.2119   3.2296   3.2473   3.2650
 PRANDTL NUMBER    0.6893   0.6893   0.6893   0.6894   0.6894   0.6894   0.6894   0.6895

  WITH FROZEN REACTIONS

 Cp, KJ/(KG)(K)   14.5590  14.5618  14.5648  14.5678  14.5709  14.5740  14.5773  14.5806
 CONDUCTIVITY      3.1410   3.1587   3.1764   3.1942   3.2119   3.2296   3.2473   3.2650
 PRANDTL NUMBER    0.6893   0.6893   0.6893   0.6894   0.6894   0.6894   0.6894   0.6895

 MASS FRACTIONS

 *H2              1.00000  1.00000  1.00000  1.00000  1.00000  1.00000  1.00000  1.00000

  * THERMODYNAMIC PROPERTIES FITTED TO 20000.K

 NOTE. WEIGHT FRACTION OF FUEL IN TOTAL FUELS AND OF OXIDANT IN TOTAL OXIDANTS









               THERMODYNAMIC EQUILIBRIUM PROPERTIES AT ASSIGNED

                           TEMPERATURE AND PRESSURE

 CASE =                

             REACTANT                    WT FRACTION      ENERGY      TEMP
                                          (SEE NOTE)     KJ/KG-MOL      K  
 FUEL        H2                           1.0000000         0.000      0.000
 OXIDANT     H2                           1.0000000         0.000      0.000

 O/F=    1.00000  %FUEL= 50.000000  R,EQ.RATIO= 0.000000  PHI,EQ.RATIO=-1.000000

 THERMODYNAMIC PROPERTIES

 P, BAR            250.00
 T, K              670.00
 RHO, KG/CU M    9.0468 0
 H, KJ/KG         5390.02
 U, KJ/KG         2626.61
 G, KJ/KG        -30641.1
 S, KJ/(KG)(K)    53.7778

 M, (1/n)           2.016
 (dLV/dLP)t      -1.00000
 (dLV/dLT)p        1.0000
 Cp, KJ/(KG)(K)   14.5840
 GAMMAs            1.3943
 SON VEL,M/SEC     1962.9

 TRANSPORT PROPERTIES (GASES ONLY)
   CONDUCTIVITY IN UNITS OF MILLIWATTS/(CM)(K)

 VISC,MILLIPOISE  0.15520

  WITH EQUILIBRIUM REACTIONS

 Cp, KJ/(KG)(K)   14.5840
 CONDUCTIVITY      3.2827
 PRANDTL NUMBER    0.6895

  WITH FROZEN REACTIONS

 Cp, KJ/(KG)(K)   14.5840
 CONDUCTIVITY      3.2827
 PRANDTL NUMBER    0.6895

 MASS FRACTIONS

 *H2              1.00000

  * THERMODYNAMIC PROPERTIES FITTED TO 20000.K

 NOTE. WEIGHT FRACTION OF FUEL IN TOTAL FUELS AND OF OXIDANT IN TOTAL OXIDANTS



  
