
 *******************************************************************************

         NASA-GLENN CHEMICAL EQUILIBRIUM PROGRAM CEA2, MAY 21, 2004
                   BY  BONNIE MCBRIDE AND SANFORD GORDON
      REFS: NASA RP-1311, PART I, 1994 AND NASA RP-1311, PART II, 1996

 *******************************************************************************



  prob tp ions
  p,bar= 280.0,310.0,350.0,390.0,440.0,490.0,540.0,600.0,670.0,740.0,825.0,910.0
  t,k= 650,655,660,665,670,675,680,685,690,695,700,705,710,715,720
  
  reac
  na H2                wt%=100.0000
  
  output short
  output siunits
  output transport
  
 end





               THERMODYNAMIC EQUILIBRIUM PROPERTIES AT ASSIGNED

                           TEMPERATURE AND PRESSURE

 CASE =                

             REACTANT                    WT FRACTION      ENERGY      TEMP
                                          (SEE NOTE)     KJ/KG-MOL      K  
             H2                           1.0000000         0.000      0.000

 O/F=    0.00000  %FUEL=100.000000  R,EQ.RATIO= 0.000000  PHI,EQ.RATIO= 0.000000

 THERMODYNAMIC PROPERTIES

 P, BAR            280.00   280.00   280.00   280.00   280.00   280.00   280.00   280.00
 T, K              650.00   655.00   660.00   665.00   670.00   675.00   680.00   685.00
 RHO, KG/CU M    1.0444 1 1.0364 1 1.0286 1 1.0209 1 1.0132 1 1.0057 1 9.9834 0 9.9105 0
 H, KJ/KG         5098.48  5171.34  5244.22  5317.11  5390.02  5462.95  5535.90  5608.86
 U, KJ/KG         2417.55  2469.79  2522.05  2574.32  2626.61  2678.92  2731.24  2783.58
 G, KJ/KG        -29266.2 -29530.8 -29795.9 -30061.7 -30327.9 -30594.8 -30862.1 -31130.0
 S, KJ/(KG)(K)    52.8688  52.9803  53.0912  53.2012  53.3104  53.4188  53.5265  53.6334

 M, (1/n)           2.016    2.016    2.016    2.016    2.016    2.016    2.016    2.016
 (dLV/dLP)t      -1.00000 -1.00000 -1.00000 -1.00000 -1.00000 -1.00000 -1.00000 -1.00000
 (dLV/dLT)p        1.0000   1.0000   1.0000   1.0000   1.0000   1.0000   1.0000   1.0000
 Cp, KJ/(KG)(K)   14.5709  14.5741  14.5773  14.5806  14.5840  14.5875  14.5911  14.5947
 GAMMAs            1.3948   1.3947   1.3946   1.3945   1.3943   1.3942   1.3941   1.3939
 SON VEL,M/SEC     1933.8   1941.1   1948.4   1955.7   1962.9   1970.2   1977.3   1984.5

 TRANSPORT PROPERTIES (GASES ONLY)
   CONDUCTIVITY IN UNITS OF MILLIWATTS/(CM)(K)

 VISC,MILLIPOISE  0.15196  0.15277  0.15358  0.15439  0.15520  0.15600  0.15680  0.15761

  WITH EQUILIBRIUM REACTIONS

 Cp, KJ/(KG)(K)   14.5709  14.5741  14.5773  14.5806  14.5840  14.5875  14.5911  14.5947
 CONDUCTIVITY      3.2118   3.2296   3.2473   3.2650   3.2827   3.3003   3.3180   3.3357
 PRANDTL NUMBER    0.6894   0.6894   0.6894   0.6895   0.6895   0.6895   0.6896   0.6896

  WITH FROZEN REACTIONS

 Cp, KJ/(KG)(K)   14.5709  14.5741  14.5773  14.5806  14.5840  14.5875  14.5911  14.5947
 CONDUCTIVITY      3.2118   3.2296   3.2473   3.2650   3.2827   3.3003   3.3180   3.3357
 PRANDTL NUMBER    0.6894   0.6894   0.6894   0.6895   0.6895   0.6895   0.6896   0.6896

 MOLE FRACTIONS

 *H2              1.00000  1.00000  1.00000  1.00000  1.00000  1.00000  1.00000  1.00000

  * THERMODYNAMIC PROPERTIES FITTED TO 20000.K

 NOTE. WEIGHT FRACTION OF FUEL IN TOTAL FUELS AND OF OXIDANT IN TOTAL OXIDANTS









               THERMODYNAMIC EQUILIBRIUM PROPERTIES AT ASSIGNED

                           TEMPERATURE AND PRESSURE

 CASE =                

             REACTANT                    WT FRACTION      ENERGY      TEMP
                                          (SEE NOTE)     KJ/KG-MOL      K  
             H2                           1.0000000         0.000      0.000

 O/F=    0.00000  %FUEL=100.000000  R,EQ.RATIO= 0.000000  PHI,EQ.RATIO= 0.000000

 THERMODYNAMIC PROPERTIES

 P, BAR            280.00   280.00   280.00   280.00   280.00   280.00   280.00   310.00
 T, K              690.00   695.00   700.00   705.00   710.00   715.00   720.00   650.00
 RHO, KG/CU M    9.8387 0 9.7679 0 9.6982 0 9.6294 0 9.5616 0 9.4947 0 9.4288 0 1.1563 1
 H, KJ/KG         5681.84  5754.85  5827.87  5900.91  5973.97  6047.05  6120.15  5098.48
 U, KJ/KG         2835.94  2888.32  2940.72  2993.14  3045.58  3098.04  3150.51  2417.55
 G, KJ/KG        -31398.5 -31667.4 -31936.9 -32206.9 -32477.4 -32748.5 -33020.0 -28993.3
 S, KJ/(KG)(K)    53.7396  53.8450  53.9497  54.0537  54.1569  54.2595  54.3614  52.4489

 M, (1/n)           2.016    2.016    2.016    2.016    2.016    2.016    2.016    2.016
 (dLV/dLP)t      -1.00000 -1.00000 -1.00000 -1.00000 -1.00000 -1.00000 -1.00000 -1.00000
 (dLV/dLT)p        1.0000   1.0000   1.0000   1.0000   1.0000   1.0000   1.0000   1.0000
 Cp, KJ/(KG)(K)   14.5984  14.6022  14.6061  14.6100  14.6140  14.6181  14.6223  14.5709
 GAMMAs            1.3938   1.3937   1.3935   1.3934   1.3932   1.3931   1.3929   1.3948
 SON VEL,M/SEC     1991.6   1998.7   2005.8   2012.8   2019.9   2026.9   2033.8   1933.8

 TRANSPORT PROPERTIES (GASES ONLY)
   CONDUCTIVITY IN UNITS OF MILLIWATTS/(CM)(K)

 VISC,MILLIPOISE  0.15840  0.15920  0.16000  0.16080  0.16159  0.16238  0.16317  0.15196

  WITH EQUILIBRIUM REACTIONS

 Cp, KJ/(KG)(K)   14.5984  14.6022  14.6061  14.6100  14.6140  14.6181  14.6223  14.5709
 CONDUCTIVITY      3.3533   3.3709   3.3886   3.4062   3.4238   3.4414   3.4590   3.2118
 PRANDTL NUMBER    0.6896   0.6896   0.6897   0.6897   0.6897   0.6898   0.6898   0.6894

  WITH FROZEN REACTIONS

 Cp, KJ/(KG)(K)   14.5984  14.6022  14.6061  14.6100  14.6140  14.6181  14.6223  14.5709
 CONDUCTIVITY      3.3533   3.3709   3.3886   3.4062   3.4238   3.4414   3.4590   3.2118
 PRANDTL NUMBER    0.6896   0.6896   0.6897   0.6897   0.6897   0.6898   0.6898   0.6894

 MOLE FRACTIONS

 *H2              1.00000  1.00000  1.00000  1.00000  1.00000  1.00000  1.00000  1.00000

  * THERMODYNAMIC PROPERTIES FITTED TO 20000.K

 NOTE. WEIGHT FRACTION OF FUEL IN TOTAL FUELS AND OF OXIDANT IN TOTAL OXIDANTS









               THERMODYNAMIC EQUILIBRIUM PROPERTIES AT ASSIGNED

                           TEMPERATURE AND PRESSURE

 CASE =                

             REACTANT                    WT FRACTION      ENERGY      TEMP
                                          (SEE NOTE)     KJ/KG-MOL      K  
             H2                           1.0000000         0.000      0.000

 O/F=    0.00000  %FUEL=100.000000  R,EQ.RATIO= 0.000000  PHI,EQ.RATIO= 0.000000

 THERMODYNAMIC PROPERTIES

 P, BAR            310.00   310.00   310.00   310.00   310.00   310.00   310.00   310.00
 T, K              655.00   660.00   665.00   670.00   675.00   680.00   685.00   690.00
 RHO, KG/CU M    1.1475 1 1.1388 1 1.1302 1 1.1218 1 1.1135 1 1.1053 1 1.0972 1 1.0893 1
 H, KJ/KG         5171.34  5244.21  5317.11  5390.02  5462.95  5535.90  5608.86  5681.84
 U, KJ/KG         2469.79  2522.05  2574.32  2626.61  2678.92  2731.24  2783.58  2835.94
 G, KJ/KG        -29255.8 -29518.9 -29782.5 -30046.7 -30311.4 -30576.7 -30842.5 -31108.8
 S, KJ/(KG)(K)    52.5605  52.6713  52.7814  52.8906  52.9990  53.1067  53.2136  53.3198

 M, (1/n)           2.016    2.016    2.016    2.016    2.016    2.016    2.016    2.016
 (dLV/dLP)t      -1.00000 -1.00000 -1.00000 -1.00000 -1.00000 -1.00000 -1.00000 -1.00000
 (dLV/dLT)p        1.0000   1.0000   1.0000   1.0000   1.0000   1.0000   1.0000   1.0000
 Cp, KJ/(KG)(K)   14.5741  14.5773  14.5806  14.5840  14.5875  14.5911  14.5947  14.5984
 GAMMAs            1.3947   1.3946   1.3945   1.3943   1.3942   1.3941   1.3939   1.3938
 SON VEL,M/SEC     1941.1   1948.4   1955.7   1962.9   1970.2   1977.3   1984.5   1991.6

 TRANSPORT PROPERTIES (GASES ONLY)
   CONDUCTIVITY IN UNITS OF MILLIWATTS/(CM)(K)

 VISC,MILLIPOISE  0.15277  0.15358  0.15439  0.15520  0.15600  0.15680  0.15761  0.15840

  WITH EQUILIBRIUM REACTIONS

 Cp, KJ/(KG)(K)   14.5741  14.5773  14.5806  14.5840  14.5875  14.5911  14.5947  14.5984
 CONDUCTIVITY      3.2296   3.2473   3.2650   3.2827   3.3003   3.3180   3.3357   3.3533
 PRANDTL NUMBER    0.6894   0.6894   0.6895   0.6895   0.6895   0.6896   0.6896   0.6896

  WITH FROZEN REACTIONS

 Cp, KJ/(KG)(K)   14.5741  14.5773  14.5806  14.5840  14.5875  14.5911  14.5947  14.5984
 CONDUCTIVITY      3.2296   3.2473   3.2650   3.2827   3.3003   3.3180   3.3357   3.3533
 PRANDTL NUMBER    0.6894   0.6894   0.6895   0.6895   0.6895   0.6896   0.6896   0.6896

 MOLE FRACTIONS

 *H2              1.00000  1.00000  1.00000  1.00000  1.00000  1.00000  1.00000  1.00000

  * THERMODYNAMIC PROPERTIES FITTED TO 20000.K

 NOTE. WEIGHT FRACTION OF FUEL IN TOTAL FUELS AND OF OXIDANT IN TOTAL OXIDANTS









               THERMODYNAMIC EQUILIBRIUM PROPERTIES AT ASSIGNED

                           TEMPERATURE AND PRESSURE

 CASE =                

             REACTANT                    WT FRACTION      ENERGY      TEMP
                                          (SEE NOTE)     KJ/KG-MOL      K  
             H2                           1.0000000         0.000      0.000

 O/F=    0.00000  %FUEL=100.000000  R,EQ.RATIO= 0.000000  PHI,EQ.RATIO= 0.000000

 THERMODYNAMIC PROPERTIES

 P, BAR            310.00   310.00   310.00   310.00   310.00   310.00   350.00   350.00
 T, K              695.00   700.00   705.00   710.00   715.00   720.00   650.00   655.00
 RHO, KG/CU M    1.0815 1 1.0737 1 1.0661 1 1.0586 1 1.0512 1 1.0439 1 1.3055 1 1.2956 1
 H, KJ/KG         5754.85  5827.87  5900.91  5973.97  6047.05  6120.15  5098.48  5171.34
 U, KJ/KG         2888.32  2940.72  2993.14  3045.58  3098.04  3150.51  2417.55  2469.79
 G, KJ/KG        -31375.7 -31643.0 -31911.0 -32179.4 -32448.3 -32717.8 -28667.9 -28927.9
 S, KJ/(KG)(K)    53.4252  53.5299  53.6339  53.7371  53.8397  53.9416  51.9483  52.0600

 M, (1/n)           2.016    2.016    2.016    2.016    2.016    2.016    2.016    2.016
 (dLV/dLP)t      -1.00000 -1.00000 -1.00000 -1.00000 -1.00000 -1.00000 -1.00000 -1.00000
 (dLV/dLT)p        1.0000   1.0000   1.0000   1.0000   1.0000   1.0000   1.0000   1.0000
 Cp, KJ/(KG)(K)   14.6022  14.6061  14.6100  14.6140  14.6181  14.6223  14.5709  14.5741
 GAMMAs            1.3937   1.3935   1.3934   1.3932   1.3931   1.3929   1.3948   1.3947
 SON VEL,M/SEC     1998.7   2005.8   2012.8   2019.9   2026.9   2033.8   1933.8   1941.1

 TRANSPORT PROPERTIES (GASES ONLY)
   CONDUCTIVITY IN UNITS OF MILLIWATTS/(CM)(K)

 VISC,MILLIPOISE  0.15920  0.16000  0.16080  0.16159  0.16238  0.16317  0.15196  0.15277

  WITH EQUILIBRIUM REACTIONS

 Cp, KJ/(KG)(K)   14.6022  14.6061  14.6100  14.6140  14.6181  14.6223  14.5709  14.5741
 CONDUCTIVITY      3.3709   3.3886   3.4062   3.4238   3.4414   3.4590   3.2118   3.2296
 PRANDTL NUMBER    0.6896   0.6897   0.6897   0.6897   0.6898   0.6898   0.6894   0.6894

  WITH FROZEN REACTIONS

 Cp, KJ/(KG)(K)   14.6022  14.6061  14.6100  14.6140  14.6181  14.6223  14.5709  14.5741
 CONDUCTIVITY      3.3709   3.3886   3.4062   3.4238   3.4414   3.4590   3.2118   3.2296
 PRANDTL NUMBER    0.6896   0.6897   0.6897   0.6897   0.6898   0.6898   0.6894   0.6894

 MOLE FRACTIONS

 *H2              1.00000  1.00000  1.00000  1.00000  1.00000  1.00000  1.00000  1.00000

  * THERMODYNAMIC PROPERTIES FITTED TO 20000.K

 NOTE. WEIGHT FRACTION OF FUEL IN TOTAL FUELS AND OF OXIDANT IN TOTAL OXIDANTS









               THERMODYNAMIC EQUILIBRIUM PROPERTIES AT ASSIGNED

                           TEMPERATURE AND PRESSURE

 CASE =                

             REACTANT                    WT FRACTION      ENERGY      TEMP
                                          (SEE NOTE)     KJ/KG-MOL      K  
             H2                           1.0000000         0.000      0.000

 O/F=    0.00000  %FUEL=100.000000  R,EQ.RATIO= 0.000000  PHI,EQ.RATIO= 0.000000

 THERMODYNAMIC PROPERTIES

 P, BAR            350.00   350.00   350.00   350.00   350.00   350.00   350.00   350.00
 T, K              660.00   665.00   670.00   675.00   680.00   685.00   690.00   695.00
 RHO, KG/CU M    1.2857 1 1.2761 1 1.2666 1 1.2572 1 1.2479 1 1.2388 1 1.2298 1 1.2210 1
 H, KJ/KG         5244.21  5317.11  5390.02  5462.95  5535.90  5608.86  5681.84  5754.85
 U, KJ/KG         2522.05  2574.32  2626.61  2678.92  2731.24  2783.58  2835.94  2888.32
 G, KJ/KG        -29188.5 -29449.6 -29711.3 -29973.5 -30236.3 -30499.6 -30763.4 -31027.8
 S, KJ/(KG)(K)    52.1708  52.2808  52.3900  52.4985  52.6062  52.7131  52.8192  52.9246

 M, (1/n)           2.016    2.016    2.016    2.016    2.016    2.016    2.016    2.016
 (dLV/dLP)t      -1.00000 -1.00000 -1.00000 -1.00000 -1.00000 -1.00000 -1.00000 -1.00000
 (dLV/dLT)p        1.0000   1.0000   1.0000   1.0000   1.0000   1.0000   1.0000   1.0000
 Cp, KJ/(KG)(K)   14.5773  14.5806  14.5840  14.5875  14.5911  14.5947  14.5984  14.6022
 GAMMAs            1.3946   1.3945   1.3943   1.3942   1.3941   1.3939   1.3938   1.3937
 SON VEL,M/SEC     1948.4   1955.7   1962.9   1970.2   1977.3   1984.5   1991.6   1998.7

 TRANSPORT PROPERTIES (GASES ONLY)
   CONDUCTIVITY IN UNITS OF MILLIWATTS/(CM)(K)

 VISC,MILLIPOISE  0.15358  0.15439  0.15520  0.15600  0.15680  0.15761  0.15840  0.15920

  WITH EQUILIBRIUM REACTIONS

 Cp, KJ/(KG)(K)   14.5773  14.5806  14.5840  14.5875  14.5911  14.5947  14.5984  14.6022
 CONDUCTIVITY      3.2473   3.2650   3.2827   3.3003   3.3180   3.3357   3.3533   3.3709
 PRANDTL NUMBER    0.6894   0.6895   0.6895   0.6895   0.6896   0.6896   0.6896   0.6896

  WITH FROZEN REACTIONS

 Cp, KJ/(KG)(K)   14.5773  14.5806  14.5840  14.5875  14.5911  14.5947  14.5984  14.6022
 CONDUCTIVITY      3.2473   3.2650   3.2827   3.3003   3.3180   3.3357   3.3533   3.3709
 PRANDTL NUMBER    0.6894   0.6895   0.6895   0.6895   0.6896   0.6896   0.6896   0.6896

 MOLE FRACTIONS

 *H2              1.00000  1.00000  1.00000  1.00000  1.00000  1.00000  1.00000  1.00000

  * THERMODYNAMIC PROPERTIES FITTED TO 20000.K

 NOTE. WEIGHT FRACTION OF FUEL IN TOTAL FUELS AND OF OXIDANT IN TOTAL OXIDANTS









               THERMODYNAMIC EQUILIBRIUM PROPERTIES AT ASSIGNED

                           TEMPERATURE AND PRESSURE

 CASE =                

             REACTANT                    WT FRACTION      ENERGY      TEMP
                                          (SEE NOTE)     KJ/KG-MOL      K  
             H2                           1.0000000         0.000      0.000

 O/F=    0.00000  %FUEL=100.000000  R,EQ.RATIO= 0.000000  PHI,EQ.RATIO= 0.000000

 THERMODYNAMIC PROPERTIES

 P, BAR            350.00   350.00   350.00   350.00   350.00   390.00   390.00   390.00
 T, K              700.00   705.00   710.00   715.00   720.00   650.00   655.00   660.00
 RHO, KG/CU M    1.2123 1 1.2037 1 1.1952 1 1.1868 1 1.1786 1 1.4547 1 1.4436 1 1.4327 1
 H, KJ/KG         5827.87  5900.91  5973.97  6047.05  6120.15  5098.48  5171.34  5244.21
 U, KJ/KG         2940.72  2993.14  3045.58  3098.04  3150.51  2417.55  2469.79  2522.05
 G, KJ/KG        -31292.7 -31558.1 -31824.0 -32090.4 -32357.4 -28377.8 -28635.6 -28893.9
 S, KJ/(KG)(K)    53.0293  53.1333  53.2366  53.3391  53.4410  51.5020  51.6136  51.7245

 M, (1/n)           2.016    2.016    2.016    2.016    2.016    2.016    2.016    2.016
 (dLV/dLP)t      -1.00000 -1.00000 -1.00000 -1.00000 -1.00000 -1.00000 -1.00000 -1.00000
 (dLV/dLT)p        1.0000   1.0000   1.0000   1.0000   1.0000   1.0000   1.0000   1.0000
 Cp, KJ/(KG)(K)   14.6061  14.6100  14.6140  14.6181  14.6223  14.5709  14.5741  14.5773
 GAMMAs            1.3935   1.3934   1.3932   1.3931   1.3929   1.3948   1.3947   1.3946
 SON VEL,M/SEC     2005.8   2012.8   2019.9   2026.9   2033.8   1933.8   1941.1   1948.4

 TRANSPORT PROPERTIES (GASES ONLY)
   CONDUCTIVITY IN UNITS OF MILLIWATTS/(CM)(K)

 VISC,MILLIPOISE  0.16000  0.16080  0.16159  0.16238  0.16317  0.15196  0.15277  0.15358

  WITH EQUILIBRIUM REACTIONS

 Cp, KJ/(KG)(K)   14.6061  14.6100  14.6140  14.6181  14.6223  14.5709  14.5741  14.5773
 CONDUCTIVITY      3.3886   3.4062   3.4238   3.4414   3.4590   3.2118   3.2296   3.2473
 PRANDTL NUMBER    0.6897   0.6897   0.6897   0.6898   0.6898   0.6894   0.6894   0.6894

  WITH FROZEN REACTIONS

 Cp, KJ/(KG)(K)   14.6061  14.6100  14.6140  14.6181  14.6223  14.5709  14.5741  14.5773
 CONDUCTIVITY      3.3886   3.4062   3.4238   3.4414   3.4590   3.2118   3.2296   3.2473
 PRANDTL NUMBER    0.6897   0.6897   0.6897   0.6898   0.6898   0.6894   0.6894   0.6894

 MOLE FRACTIONS

 *H2              1.00000  1.00000  1.00000  1.00000  1.00000  1.00000  1.00000  1.00000

  * THERMODYNAMIC PROPERTIES FITTED TO 20000.K

 NOTE. WEIGHT FRACTION OF FUEL IN TOTAL FUELS AND OF OXIDANT IN TOTAL OXIDANTS









               THERMODYNAMIC EQUILIBRIUM PROPERTIES AT ASSIGNED

                           TEMPERATURE AND PRESSURE

 CASE =                

             REACTANT                    WT FRACTION      ENERGY      TEMP
                                          (SEE NOTE)     KJ/KG-MOL      K  
             H2                           1.0000000         0.000      0.000

 O/F=    0.00000  %FUEL=100.000000  R,EQ.RATIO= 0.000000  PHI,EQ.RATIO= 0.000000

 THERMODYNAMIC PROPERTIES

 P, BAR            390.00   390.00   390.00   390.00   390.00   390.00   390.00   390.00
 T, K              665.00   670.00   675.00   680.00   685.00   690.00   695.00   700.00
 RHO, KG/CU M    1.4219 1 1.4113 1 1.4008 1 1.3905 1 1.3804 1 1.3704 1 1.3605 1 1.3508 1
 H, KJ/KG         5317.11  5390.02  5462.95  5535.90  5608.86  5681.84  5754.85  5827.87
 U, KJ/KG         2574.32  2626.61  2678.92  2731.24  2783.58  2835.94  2888.32  2940.72
 G, KJ/KG        -29152.8 -29412.3 -29672.3 -29932.8 -30193.9 -30455.4 -30717.6 -30980.2
 S, KJ/(KG)(K)    51.8345  51.9437  52.0522  52.1598  52.2667  52.3729  52.4783  52.5830

 M, (1/n)           2.016    2.016    2.016    2.016    2.016    2.016    2.016    2.016
 (dLV/dLP)t      -1.00000 -1.00000 -1.00000 -1.00000 -1.00000 -1.00000 -1.00000 -1.00000
 (dLV/dLT)p        1.0000   1.0000   1.0000   1.0000   1.0000   1.0000   1.0000   1.0000
 Cp, KJ/(KG)(K)   14.5806  14.5840  14.5875  14.5911  14.5947  14.5984  14.6022  14.6061
 GAMMAs            1.3945   1.3943   1.3942   1.3941   1.3939   1.3938   1.3937   1.3935
 SON VEL,M/SEC     1955.7   1962.9   1970.2   1977.3   1984.5   1991.6   1998.7   2005.8

 TRANSPORT PROPERTIES (GASES ONLY)
   CONDUCTIVITY IN UNITS OF MILLIWATTS/(CM)(K)

 VISC,MILLIPOISE  0.15439  0.15520  0.15600  0.15680  0.15761  0.15840  0.15920  0.16000

  WITH EQUILIBRIUM REACTIONS

 Cp, KJ/(KG)(K)   14.5806  14.5840  14.5875  14.5911  14.5947  14.5984  14.6022  14.6061
 CONDUCTIVITY      3.2650   3.2827   3.3003   3.3180   3.3357   3.3533   3.3709   3.3886
 PRANDTL NUMBER    0.6895   0.6895   0.6895   0.6896   0.6896   0.6896   0.6896   0.6897

  WITH FROZEN REACTIONS

 Cp, KJ/(KG)(K)   14.5806  14.5840  14.5875  14.5911  14.5947  14.5984  14.6022  14.6061
 CONDUCTIVITY      3.2650   3.2827   3.3003   3.3180   3.3357   3.3533   3.3709   3.3886
 PRANDTL NUMBER    0.6895   0.6895   0.6895   0.6896   0.6896   0.6896   0.6896   0.6897

 MOLE FRACTIONS

 *H2              1.00000  1.00000  1.00000  1.00000  1.00000  1.00000  1.00000  1.00000

  * THERMODYNAMIC PROPERTIES FITTED TO 20000.K

 NOTE. WEIGHT FRACTION OF FUEL IN TOTAL FUELS AND OF OXIDANT IN TOTAL OXIDANTS









               THERMODYNAMIC EQUILIBRIUM PROPERTIES AT ASSIGNED

                           TEMPERATURE AND PRESSURE

 CASE =                

             REACTANT                    WT FRACTION      ENERGY      TEMP
                                          (SEE NOTE)     KJ/KG-MOL      K  
             H2                           1.0000000         0.000      0.000

 O/F=    0.00000  %FUEL=100.000000  R,EQ.RATIO= 0.000000  PHI,EQ.RATIO= 0.000000

 THERMODYNAMIC PROPERTIES

 P, BAR            390.00   390.00   390.00   390.00   440.00   440.00   440.00   440.00
 T, K              705.00   710.00   715.00   720.00   650.00   655.00   660.00   665.00
 RHO, KG/CU M    1.3412 1 1.3318 1 1.3225 1 1.3133 1 1.6412 1 1.6287 1 1.6164 1 1.6042 1
 H, KJ/KG         5900.91  5973.97  6047.05  6120.15  5098.48  5171.34  5244.21  5317.11
 U, KJ/KG         2993.14  3045.58  3098.04  3150.51  2417.55  2469.79  2522.05  2574.32
 G, KJ/KG        -31243.4 -31507.1 -31771.3 -32036.0 -28054.4 -28309.7 -28565.6 -28822.0
 S, KJ/(KG)(K)    52.6870  52.7902  52.8928  52.9947  51.0045  51.1161  51.2269  51.3369

 M, (1/n)           2.016    2.016    2.016    2.016    2.016    2.016    2.016    2.016
 (dLV/dLP)t      -1.00000 -1.00000 -1.00000 -1.00000 -1.00000 -1.00000 -1.00000 -1.00000
 (dLV/dLT)p        1.0000   1.0000   1.0000   1.0000   1.0000   1.0000   1.0000   1.0000
 Cp, KJ/(KG)(K)   14.6100  14.6140  14.6181  14.6223  14.5709  14.5741  14.5773  14.5806
 GAMMAs            1.3934   1.3932   1.3931   1.3929   1.3948   1.3947   1.3946   1.3945
 SON VEL,M/SEC     2012.8   2019.9   2026.9   2033.8   1933.8   1941.1   1948.4   1955.7

 TRANSPORT PROPERTIES (GASES ONLY)
   CONDUCTIVITY IN UNITS OF MILLIWATTS/(CM)(K)

 VISC,MILLIPOISE  0.16080  0.16159  0.16238  0.16317  0.15196  0.15277  0.15358  0.15439

  WITH EQUILIBRIUM REACTIONS

 Cp, KJ/(KG)(K)   14.6100  14.6140  14.6181  14.6223  14.5709  14.5741  14.5773  14.5806
 CONDUCTIVITY      3.4062   3.4238   3.4414   3.4590   3.2118   3.2296   3.2473   3.2650
 PRANDTL NUMBER    0.6897   0.6897   0.6898   0.6898   0.6894   0.6894   0.6894   0.6895

  WITH FROZEN REACTIONS

 Cp, KJ/(KG)(K)   14.6100  14.6140  14.6181  14.6223  14.5709  14.5741  14.5773  14.5806
 CONDUCTIVITY      3.4062   3.4238   3.4414   3.4590   3.2118   3.2296   3.2473   3.2650
 PRANDTL NUMBER    0.6897   0.6897   0.6898   0.6898   0.6894   0.6894   0.6894   0.6895

 MOLE FRACTIONS

 *H2              1.00000  1.00000  1.00000  1.00000  1.00000  1.00000  1.00000  1.00000

  * THERMODYNAMIC PROPERTIES FITTED TO 20000.K

 NOTE. WEIGHT FRACTION OF FUEL IN TOTAL FUELS AND OF OXIDANT IN TOTAL OXIDANTS









               THERMODYNAMIC EQUILIBRIUM PROPERTIES AT ASSIGNED

                           TEMPERATURE AND PRESSURE

 CASE =                

             REACTANT                    WT FRACTION      ENERGY      TEMP
                                          (SEE NOTE)     KJ/KG-MOL      K  
             H2                           1.0000000         0.000      0.000

 O/F=    0.00000  %FUEL=100.000000  R,EQ.RATIO= 0.000000  PHI,EQ.RATIO= 0.000000

 THERMODYNAMIC PROPERTIES

 P, BAR            440.00   440.00   440.00   440.00   440.00   440.00   440.00   440.00
 T, K              670.00   675.00   680.00   685.00   690.00   695.00   700.00   705.00
 RHO, KG/CU M    1.5922 1 1.5804 1 1.5688 1 1.5574 1 1.5461 1 1.5350 1 1.5240 1 1.5132 1
 H, KJ/KG         5390.02  5462.95  5535.90  5608.86  5681.84  5754.85  5827.87  5900.91
 U, KJ/KG         2626.61  2678.92  2731.24  2783.58  2835.94  2888.32  2940.72  2993.14
 G, KJ/KG        -29078.9 -29336.4 -29594.5 -29853.0 -30112.2 -30371.8 -30632.0 -30892.6
 S, KJ/(KG)(K)    51.4462  51.5546  51.6623  51.7692  51.8754  51.9808  52.0855  52.1894

 M, (1/n)           2.016    2.016    2.016    2.016    2.016    2.016    2.016    2.016
 (dLV/dLP)t      -1.00000 -1.00000 -1.00000 -1.00000 -1.00000 -1.00000 -1.00000 -1.00000
 (dLV/dLT)p        1.0000   1.0000   1.0000   1.0000   1.0000   1.0000   1.0000   1.0000
 Cp, KJ/(KG)(K)   14.5840  14.5875  14.5911  14.5947  14.5984  14.6022  14.6061  14.6100
 GAMMAs            1.3943   1.3942   1.3941   1.3939   1.3938   1.3937   1.3935   1.3934
 SON VEL,M/SEC     1962.9   1970.2   1977.3   1984.5   1991.6   1998.7   2005.8   2012.8

 TRANSPORT PROPERTIES (GASES ONLY)
   CONDUCTIVITY IN UNITS OF MILLIWATTS/(CM)(K)

 VISC,MILLIPOISE  0.15520  0.15600  0.15680  0.15761  0.15840  0.15920  0.16000  0.16080

  WITH EQUILIBRIUM REACTIONS

 Cp, KJ/(KG)(K)   14.5840  14.5875  14.5911  14.5947  14.5984  14.6022  14.6061  14.6100
 CONDUCTIVITY      3.2827   3.3003   3.3180   3.3357   3.3533   3.3709   3.3886   3.4062
 PRANDTL NUMBER    0.6895   0.6895   0.6896   0.6896   0.6896   0.6896   0.6897   0.6897

  WITH FROZEN REACTIONS

 Cp, KJ/(KG)(K)   14.5840  14.5875  14.5911  14.5947  14.5984  14.6022  14.6061  14.6100
 CONDUCTIVITY      3.2827   3.3003   3.3180   3.3357   3.3533   3.3709   3.3886   3.4062
 PRANDTL NUMBER    0.6895   0.6895   0.6896   0.6896   0.6896   0.6896   0.6897   0.6897

 MOLE FRACTIONS

 *H2              1.00000  1.00000  1.00000  1.00000  1.00000  1.00000  1.00000  1.00000

  * THERMODYNAMIC PROPERTIES FITTED TO 20000.K

 NOTE. WEIGHT FRACTION OF FUEL IN TOTAL FUELS AND OF OXIDANT IN TOTAL OXIDANTS









               THERMODYNAMIC EQUILIBRIUM PROPERTIES AT ASSIGNED

                           TEMPERATURE AND PRESSURE

 CASE =                

             REACTANT                    WT FRACTION      ENERGY      TEMP
                                          (SEE NOTE)     KJ/KG-MOL      K  
             H2                           1.0000000         0.000      0.000

 O/F=    0.00000  %FUEL=100.000000  R,EQ.RATIO= 0.000000  PHI,EQ.RATIO= 0.000000

 THERMODYNAMIC PROPERTIES

 P, BAR            440.00   440.00   440.00   490.00   490.00   490.00   490.00   490.00
 T, K              710.00   715.00   720.00   650.00   655.00   660.00   665.00   670.00
 RHO, KG/CU M    1.5025 1 1.4920 1 1.4817 1 1.8277 1 1.8138 1 1.8000 1 1.7865 1 1.7732 1
 H, KJ/KG         5973.97  6047.05  6120.15  5098.48  5171.34  5244.21  5317.11  5390.02
 U, KJ/KG         3045.58  3098.04  3150.51  2417.55  2469.79  2522.05  2574.32  2626.61
 G, KJ/KG        -31153.9 -31415.6 -31677.8 -27765.9 -28018.9 -28272.6 -28526.8 -28781.5
 S, KJ/(KG)(K)    52.2927  52.3953  52.4972  50.5605  50.6722  50.7830  50.8930  51.0023

 M, (1/n)           2.016    2.016    2.016    2.016    2.016    2.016    2.016    2.016
 (dLV/dLP)t      -1.00000 -1.00000 -1.00000 -1.00000 -1.00000 -1.00000 -1.00000 -1.00000
 (dLV/dLT)p        1.0000   1.0000   1.0000   1.0000   1.0000   1.0000   1.0000   1.0000
 Cp, KJ/(KG)(K)   14.6140  14.6181  14.6223  14.5709  14.5741  14.5773  14.5806  14.5840
 GAMMAs            1.3932   1.3931   1.3929   1.3948   1.3947   1.3946   1.3945   1.3943
 SON VEL,M/SEC     2019.9   2026.9   2033.8   1933.8   1941.1   1948.4   1955.7   1962.9

 TRANSPORT PROPERTIES (GASES ONLY)
   CONDUCTIVITY IN UNITS OF MILLIWATTS/(CM)(K)

 VISC,MILLIPOISE  0.16159  0.16238  0.16317  0.15196  0.15277  0.15358  0.15439  0.15520

  WITH EQUILIBRIUM REACTIONS

 Cp, KJ/(KG)(K)   14.6140  14.6181  14.6223  14.5709  14.5741  14.5773  14.5806  14.5840
 CONDUCTIVITY      3.4238   3.4414   3.4590   3.2118   3.2296   3.2473   3.2650   3.2827
 PRANDTL NUMBER    0.6897   0.6898   0.6898   0.6894   0.6894   0.6894   0.6895   0.6895

  WITH FROZEN REACTIONS

 Cp, KJ/(KG)(K)   14.6140  14.6181  14.6223  14.5709  14.5741  14.5773  14.5806  14.5840
 CONDUCTIVITY      3.4238   3.4414   3.4590   3.2118   3.2296   3.2473   3.2650   3.2827
 PRANDTL NUMBER    0.6897   0.6898   0.6898   0.6894   0.6894   0.6894   0.6895   0.6895

 MOLE FRACTIONS

 *H2              1.00000  1.00000  1.00000  1.00000  1.00000  1.00000  1.00000  1.00000

  * THERMODYNAMIC PROPERTIES FITTED TO 20000.K

 NOTE. WEIGHT FRACTION OF FUEL IN TOTAL FUELS AND OF OXIDANT IN TOTAL OXIDANTS









               THERMODYNAMIC EQUILIBRIUM PROPERTIES AT ASSIGNED

                           TEMPERATURE AND PRESSURE

 CASE =                

             REACTANT                    WT FRACTION      ENERGY      TEMP
                                          (SEE NOTE)     KJ/KG-MOL      K  
             H2                           1.0000000         0.000      0.000

 O/F=    0.00000  %FUEL=100.000000  R,EQ.RATIO= 0.000000  PHI,EQ.RATIO= 0.000000

 THERMODYNAMIC PROPERTIES

 P, BAR            490.00   490.00   490.00   490.00   490.00   490.00   490.00   490.00
 T, K              675.00   680.00   685.00   690.00   695.00   700.00   705.00   710.00
 RHO, KG/CU M    1.7600 1 1.7471 1 1.7343 1 1.7218 1 1.7094 1 1.6972 1 1.6851 1 1.6733 1
 H, KJ/KG         5462.95  5535.90  5608.86  5681.84  5754.85  5827.87  5900.91  5973.97
 U, KJ/KG         2678.92  2731.24  2783.58  2835.94  2888.32  2940.72  2993.14  3045.58
 G, KJ/KG        -29036.8 -29292.6 -29549.0 -29805.8 -30063.3 -30321.2 -30579.7 -30838.7
 S, KJ/(KG)(K)    51.1107  51.2184  51.3253  51.4314  51.5369  51.6415  51.7455  51.8488

 M, (1/n)           2.016    2.016    2.016    2.016    2.016    2.016    2.016    2.016
 (dLV/dLP)t      -1.00000 -1.00000 -1.00000 -1.00000 -1.00000 -1.00000 -1.00000 -1.00000
 (dLV/dLT)p        1.0000   1.0000   1.0000   1.0000   1.0000   1.0000   1.0000   1.0000
 Cp, KJ/(KG)(K)   14.5875  14.5911  14.5947  14.5984  14.6022  14.6061  14.6100  14.6140
 GAMMAs            1.3942   1.3941   1.3939   1.3938   1.3937   1.3935   1.3934   1.3932
 SON VEL,M/SEC     1970.2   1977.3   1984.5   1991.6   1998.7   2005.8   2012.8   2019.9

 TRANSPORT PROPERTIES (GASES ONLY)
   CONDUCTIVITY IN UNITS OF MILLIWATTS/(CM)(K)

 VISC,MILLIPOISE  0.15600  0.15680  0.15761  0.15840  0.15920  0.16000  0.16080  0.16159

  WITH EQUILIBRIUM REACTIONS

 Cp, KJ/(KG)(K)   14.5875  14.5911  14.5947  14.5984  14.6022  14.6061  14.6100  14.6140
 CONDUCTIVITY      3.3003   3.3180   3.3357   3.3533   3.3709   3.3886   3.4062   3.4238
 PRANDTL NUMBER    0.6895   0.6896   0.6896   0.6896   0.6896   0.6897   0.6897   0.6897

  WITH FROZEN REACTIONS

 Cp, KJ/(KG)(K)   14.5875  14.5911  14.5947  14.5984  14.6022  14.6061  14.6100  14.6140
 CONDUCTIVITY      3.3003   3.3180   3.3357   3.3533   3.3709   3.3886   3.4062   3.4238
 PRANDTL NUMBER    0.6895   0.6896   0.6896   0.6896   0.6896   0.6897   0.6897   0.6897

 MOLE FRACTIONS

 *H2              1.00000  1.00000  1.00000  1.00000  1.00000  1.00000  1.00000  1.00000

  * THERMODYNAMIC PROPERTIES FITTED TO 20000.K

 NOTE. WEIGHT FRACTION OF FUEL IN TOTAL FUELS AND OF OXIDANT IN TOTAL OXIDANTS









               THERMODYNAMIC EQUILIBRIUM PROPERTIES AT ASSIGNED

                           TEMPERATURE AND PRESSURE

 CASE =                

             REACTANT                    WT FRACTION      ENERGY      TEMP
                                          (SEE NOTE)     KJ/KG-MOL      K  
             H2                           1.0000000         0.000      0.000

 O/F=    0.00000  %FUEL=100.000000  R,EQ.RATIO= 0.000000  PHI,EQ.RATIO= 0.000000

 THERMODYNAMIC PROPERTIES

 P, BAR            490.00   490.00   540.00   540.00   540.00   540.00   540.00   540.00
 T, K              715.00   720.00   650.00   655.00   660.00   665.00   670.00   675.00
 RHO, KG/CU M    1.6616 1 1.6500 1 2.0142 1 1.9989 1 1.9837 1 1.9688 1 1.9541 1 1.9396 1
 H, KJ/KG         6047.05  6120.15  5098.48  5171.34  5244.21  5317.11  5390.02  5462.95
 U, KJ/KG         3098.04  3150.51  2417.55  2469.79  2522.05  2574.32  2626.61  2678.92
 G, KJ/KG        -31098.2 -31358.2 -27505.4 -27756.4 -28008.1 -28260.3 -28513.0 -28766.3
 S, KJ/(KG)(K)    51.9513  52.0532  50.1598  50.2714  50.3822  50.4923  50.6015  50.7099

 M, (1/n)           2.016    2.016    2.016    2.016    2.016    2.016    2.016    2.016
 (dLV/dLP)t      -1.00000 -1.00000 -1.00000 -1.00000 -1.00000 -1.00000 -1.00000 -1.00000
 (dLV/dLT)p        1.0000   1.0000   1.0000   1.0000   1.0000   1.0000   1.0000   1.0000
 Cp, KJ/(KG)(K)   14.6181  14.6223  14.5709  14.5741  14.5773  14.5806  14.5840  14.5875
 GAMMAs            1.3931   1.3929   1.3948   1.3947   1.3946   1.3945   1.3943   1.3942
 SON VEL,M/SEC     2026.9   2033.8   1933.8   1941.1   1948.4   1955.7   1962.9   1970.2

 TRANSPORT PROPERTIES (GASES ONLY)
   CONDUCTIVITY IN UNITS OF MILLIWATTS/(CM)(K)

 VISC,MILLIPOISE  0.16238  0.16317  0.15196  0.15277  0.15358  0.15439  0.15520  0.15600

  WITH EQUILIBRIUM REACTIONS

 Cp, KJ/(KG)(K)   14.6181  14.6223  14.5709  14.5741  14.5773  14.5806  14.5840  14.5875
 CONDUCTIVITY      3.4414   3.4590   3.2118   3.2296   3.2473   3.2650   3.2827   3.3003
 PRANDTL NUMBER    0.6898   0.6898   0.6894   0.6894   0.6894   0.6895   0.6895   0.6895

  WITH FROZEN REACTIONS

 Cp, KJ/(KG)(K)   14.6181  14.6223  14.5709  14.5741  14.5773  14.5806  14.5840  14.5875
 CONDUCTIVITY      3.4414   3.4590   3.2118   3.2296   3.2473   3.2650   3.2827   3.3003
 PRANDTL NUMBER    0.6898   0.6898   0.6894   0.6894   0.6894   0.6895   0.6895   0.6895

 MOLE FRACTIONS

 *H2              1.00000  1.00000  1.00000  1.00000  1.00000  1.00000  1.00000  1.00000

  * THERMODYNAMIC PROPERTIES FITTED TO 20000.K

 NOTE. WEIGHT FRACTION OF FUEL IN TOTAL FUELS AND OF OXIDANT IN TOTAL OXIDANTS









               THERMODYNAMIC EQUILIBRIUM PROPERTIES AT ASSIGNED

                           TEMPERATURE AND PRESSURE

 CASE =                

             REACTANT                    WT FRACTION      ENERGY      TEMP
                                          (SEE NOTE)     KJ/KG-MOL      K  
             H2                           1.0000000         0.000      0.000

 O/F=    0.00000  %FUEL=100.000000  R,EQ.RATIO= 0.000000  PHI,EQ.RATIO= 0.000000

 THERMODYNAMIC PROPERTIES

 P, BAR            540.00   540.00   540.00   540.00   540.00   540.00   540.00   540.00
 T, K              680.00   685.00   690.00   695.00   700.00   705.00   710.00   715.00
 RHO, KG/CU M    1.9254 1 1.9113 1 1.8975 1 1.8838 1 1.8704 1 1.8571 1 1.8440 1 1.8311 1
 H, KJ/KG         5535.90  5608.86  5681.84  5754.85  5827.87  5900.91  5973.97  6047.05
 U, KJ/KG         2731.24  2783.58  2835.94  2888.32  2940.72  2993.14  3045.58  3098.04
 G, KJ/KG        -29020.1 -29274.4 -29529.3 -29784.7 -30040.7 -30297.2 -30554.1 -30811.6
 S, KJ/(KG)(K)    50.8176  50.9245  51.0307  51.1361  51.2408  51.3448  51.4480  51.5506

 M, (1/n)           2.016    2.016    2.016    2.016    2.016    2.016    2.016    2.016
 (dLV/dLP)t      -1.00000 -1.00000 -1.00000 -1.00000 -1.00000 -1.00000 -1.00000 -1.00000
 (dLV/dLT)p        1.0000   1.0000   1.0000   1.0000   1.0000   1.0000   1.0000   1.0000
 Cp, KJ/(KG)(K)   14.5911  14.5947  14.5984  14.6022  14.6061  14.6100  14.6140  14.6181
 GAMMAs            1.3941   1.3939   1.3938   1.3937   1.3935   1.3934   1.3932   1.3931
 SON VEL,M/SEC     1977.3   1984.5   1991.6   1998.7   2005.8   2012.8   2019.9   2026.9

 TRANSPORT PROPERTIES (GASES ONLY)
   CONDUCTIVITY IN UNITS OF MILLIWATTS/(CM)(K)

 VISC,MILLIPOISE  0.15680  0.15761  0.15840  0.15920  0.16000  0.16080  0.16159  0.16238

  WITH EQUILIBRIUM REACTIONS

 Cp, KJ/(KG)(K)   14.5911  14.5947  14.5984  14.6022  14.6061  14.6100  14.6140  14.6181
 CONDUCTIVITY      3.3180   3.3357   3.3533   3.3709   3.3886   3.4062   3.4238   3.4414
 PRANDTL NUMBER    0.6896   0.6896   0.6896   0.6896   0.6897   0.6897   0.6897   0.6898

  WITH FROZEN REACTIONS

 Cp, KJ/(KG)(K)   14.5911  14.5947  14.5984  14.6022  14.6061  14.6100  14.6140  14.6181
 CONDUCTIVITY      3.3180   3.3357   3.3533   3.3709   3.3886   3.4062   3.4238   3.4414
 PRANDTL NUMBER    0.6896   0.6896   0.6896   0.6896   0.6897   0.6897   0.6897   0.6898

 MOLE FRACTIONS

 *H2              1.00000  1.00000  1.00000  1.00000  1.00000  1.00000  1.00000  1.00000

  * THERMODYNAMIC PROPERTIES FITTED TO 20000.K

 NOTE. WEIGHT FRACTION OF FUEL IN TOTAL FUELS AND OF OXIDANT IN TOTAL OXIDANTS









               THERMODYNAMIC EQUILIBRIUM PROPERTIES AT ASSIGNED

                           TEMPERATURE AND PRESSURE

 CASE =                

             REACTANT                    WT FRACTION      ENERGY      TEMP
                                          (SEE NOTE)     KJ/KG-MOL      K  
             H2                           1.0000000         0.000      0.000

 O/F=    0.00000  %FUEL=100.000000  R,EQ.RATIO= 0.000000  PHI,EQ.RATIO= 0.000000

 THERMODYNAMIC PROPERTIES

 P, BAR            540.00   600.00   600.00   600.00   600.00   600.00   600.00   600.00
 T, K              720.00   650.00   655.00   660.00   665.00   670.00   675.00   680.00
 RHO, KG/CU M    1.8184 1 2.2380 1 2.2210 1 2.2041 1 2.1876 1 2.1712 1 2.1551 1 2.1393 1
 H, KJ/KG         6120.15  5098.48  5171.34  5244.21  5317.11  5390.02  5462.95  5535.90
 U, KJ/KG         3150.51  2417.55  2469.79  2522.05  2574.32  2626.61  2678.92  2731.24
 G, KJ/KG        -31069.6 -27222.9 -27471.8 -27721.3 -27971.3 -28221.8 -28472.9 -28724.6
 S, KJ/(KG)(K)    51.6525  49.7252  49.8369  49.9477  50.0577  50.1669  50.2754  50.3831

 M, (1/n)           2.016    2.016    2.016    2.016    2.016    2.016    2.016    2.016
 (dLV/dLP)t      -1.00000 -1.00000 -1.00000 -1.00000 -1.00000 -1.00000 -1.00000 -1.00000
 (dLV/dLT)p        1.0000   1.0000   1.0000   1.0000   1.0000   1.0000   1.0000   1.0000
 Cp, KJ/(KG)(K)   14.6223  14.5709  14.5741  14.5773  14.5806  14.5840  14.5875  14.5911
 GAMMAs            1.3929   1.3948   1.3947   1.3946   1.3945   1.3943   1.3942   1.3941
 SON VEL,M/SEC     2033.8   1933.8   1941.1   1948.4   1955.7   1962.9   1970.2   1977.3

 TRANSPORT PROPERTIES (GASES ONLY)
   CONDUCTIVITY IN UNITS OF MILLIWATTS/(CM)(K)

 VISC,MILLIPOISE  0.16317  0.15196  0.15277  0.15358  0.15439  0.15520  0.15600  0.15680

  WITH EQUILIBRIUM REACTIONS

 Cp, KJ/(KG)(K)   14.6223  14.5709  14.5741  14.5773  14.5806  14.5840  14.5875  14.5911
 CONDUCTIVITY      3.4590   3.2118   3.2296   3.2473   3.2650   3.2827   3.3003   3.3180
 PRANDTL NUMBER    0.6898   0.6894   0.6894   0.6894   0.6895   0.6895   0.6895   0.6896

  WITH FROZEN REACTIONS

 Cp, KJ/(KG)(K)   14.6223  14.5709  14.5741  14.5773  14.5806  14.5840  14.5875  14.5911
 CONDUCTIVITY      3.4590   3.2118   3.2296   3.2473   3.2650   3.2827   3.3003   3.3180
 PRANDTL NUMBER    0.6898   0.6894   0.6894   0.6894   0.6895   0.6895   0.6895   0.6896

 MOLE FRACTIONS

 *H2              1.00000  1.00000  1.00000  1.00000  1.00000  1.00000  1.00000  1.00000

  * THERMODYNAMIC PROPERTIES FITTED TO 20000.K

 NOTE. WEIGHT FRACTION OF FUEL IN TOTAL FUELS AND OF OXIDANT IN TOTAL OXIDANTS









               THERMODYNAMIC EQUILIBRIUM PROPERTIES AT ASSIGNED

                           TEMPERATURE AND PRESSURE

 CASE =                

             REACTANT                    WT FRACTION      ENERGY      TEMP
                                          (SEE NOTE)     KJ/KG-MOL      K  
             H2                           1.0000000         0.000      0.000

 O/F=    0.00000  %FUEL=100.000000  R,EQ.RATIO= 0.000000  PHI,EQ.RATIO= 0.000000

 THERMODYNAMIC PROPERTIES

 P, BAR            600.00   600.00   600.00   600.00   600.00   600.00   600.00   600.00
 T, K              685.00   690.00   695.00   700.00   705.00   710.00   715.00   720.00
 RHO, KG/CU M    2.1237 1 2.1083 1 2.0931 1 2.0782 1 2.0634 1 2.0489 1 2.0346 1 2.0205 1
 H, KJ/KG         5608.86  5681.84  5754.85  5827.87  5900.91  5973.97  6047.05  6120.15
 U, KJ/KG         2783.58  2835.94  2888.32  2940.72  2993.14  3045.58  3098.04  3150.51
 G, KJ/KG        -28976.8 -29229.5 -29482.7 -29736.5 -29990.8 -30245.6 -30500.9 -30756.8
 S, KJ/(KG)(K)    50.4900  50.5961  50.7015  50.8062  50.9102  51.0135  51.1160  51.2179

 M, (1/n)           2.016    2.016    2.016    2.016    2.016    2.016    2.016    2.016
 (dLV/dLP)t      -1.00000 -1.00000 -1.00000 -1.00000 -1.00000 -1.00000 -1.00000 -1.00000
 (dLV/dLT)p        1.0000   1.0000   1.0000   1.0000   1.0000   1.0000   1.0000   1.0000
 Cp, KJ/(KG)(K)   14.5947  14.5984  14.6022  14.6061  14.6100  14.6140  14.6181  14.6223
 GAMMAs            1.3939   1.3938   1.3937   1.3935   1.3934   1.3932   1.3931   1.3929
 SON VEL,M/SEC     1984.5   1991.6   1998.7   2005.8   2012.8   2019.9   2026.9   2033.8

 TRANSPORT PROPERTIES (GASES ONLY)
   CONDUCTIVITY IN UNITS OF MILLIWATTS/(CM)(K)

 VISC,MILLIPOISE  0.15761  0.15840  0.15920  0.16000  0.16080  0.16159  0.16238  0.16317

  WITH EQUILIBRIUM REACTIONS

 Cp, KJ/(KG)(K)   14.5947  14.5984  14.6022  14.6061  14.6100  14.6140  14.6181  14.6223
 CONDUCTIVITY      3.3357   3.3533   3.3709   3.3886   3.4062   3.4238   3.4414   3.4590
 PRANDTL NUMBER    0.6896   0.6896   0.6896   0.6897   0.6897   0.6897   0.6898   0.6898

  WITH FROZEN REACTIONS

 Cp, KJ/(KG)(K)   14.5947  14.5984  14.6022  14.6061  14.6100  14.6140  14.6181  14.6223
 CONDUCTIVITY      3.3357   3.3533   3.3709   3.3886   3.4062   3.4238   3.4414   3.4590
 PRANDTL NUMBER    0.6896   0.6896   0.6896   0.6897   0.6897   0.6897   0.6898   0.6898

 MOLE FRACTIONS

 *H2              1.00000  1.00000  1.00000  1.00000  1.00000  1.00000  1.00000  1.00000

  * THERMODYNAMIC PROPERTIES FITTED TO 20000.K

 NOTE. WEIGHT FRACTION OF FUEL IN TOTAL FUELS AND OF OXIDANT IN TOTAL OXIDANTS









               THERMODYNAMIC EQUILIBRIUM PROPERTIES AT ASSIGNED

                           TEMPERATURE AND PRESSURE

 CASE =                

             REACTANT                    WT FRACTION      ENERGY      TEMP
                                          (SEE NOTE)     KJ/KG-MOL      K  
             H2                           1.0000000         0.000      0.000

 O/F=    0.00000  %FUEL=100.000000  R,EQ.RATIO= 0.000000  PHI,EQ.RATIO= 0.000000

 THERMODYNAMIC PROPERTIES

 P, BAR            670.00   670.00   670.00   670.00   670.00   670.00   670.00   670.00
 T, K              650.00   655.00   660.00   665.00   670.00   675.00   680.00   685.00
 RHO, KG/CU M    2.4991 1 2.4801 1 2.4613 1 2.4428 1 2.4245 1 2.4066 1 2.3889 1 2.3714 1
 H, KJ/KG         5098.48  5171.34  5244.21  5317.11  5390.02  5462.95  5535.90  5608.86
 U, KJ/KG         2417.55  2469.79  2522.05  2574.32  2626.61  2678.92  2731.24  2783.58
 G, KJ/KG        -26927.1 -27173.7 -27420.9 -27668.6 -27916.9 -28165.7 -28415.1 -28665.0
 S, KJ/(KG)(K)    49.2701  49.3817  49.4926  49.6026  49.7118  49.8203  49.9279  50.0348

 M, (1/n)           2.016    2.016    2.016    2.016    2.016    2.016    2.016    2.016
 (dLV/dLP)t      -1.00000 -1.00000 -1.00000 -1.00000 -1.00000 -1.00000 -1.00000 -1.00000
 (dLV/dLT)p        1.0000   1.0000   1.0000   1.0000   1.0000   1.0000   1.0000   1.0000
 Cp, KJ/(KG)(K)   14.5709  14.5741  14.5773  14.5806  14.5840  14.5875  14.5911  14.5947
 GAMMAs            1.3948   1.3947   1.3946   1.3945   1.3943   1.3942   1.3941   1.3939
 SON VEL,M/SEC     1933.8   1941.1   1948.4   1955.7   1962.9   1970.2   1977.3   1984.5

 TRANSPORT PROPERTIES (GASES ONLY)
   CONDUCTIVITY IN UNITS OF MILLIWATTS/(CM)(K)

 VISC,MILLIPOISE  0.15196  0.15277  0.15358  0.15439  0.15520  0.15600  0.15680  0.15761

  WITH EQUILIBRIUM REACTIONS

 Cp, KJ/(KG)(K)   14.5709  14.5741  14.5773  14.5806  14.5840  14.5875  14.5911  14.5947
 CONDUCTIVITY      3.2118   3.2296   3.2473   3.2650   3.2827   3.3003   3.3180   3.3357
 PRANDTL NUMBER    0.6894   0.6894   0.6894   0.6895   0.6895   0.6895   0.6896   0.6896

  WITH FROZEN REACTIONS

 Cp, KJ/(KG)(K)   14.5709  14.5741  14.5773  14.5806  14.5840  14.5875  14.5911  14.5947
 CONDUCTIVITY      3.2118   3.2296   3.2473   3.2650   3.2827   3.3003   3.3180   3.3357
 PRANDTL NUMBER    0.6894   0.6894   0.6894   0.6895   0.6895   0.6895   0.6896   0.6896

 MOLE FRACTIONS

 *H2              1.00000  1.00000  1.00000  1.00000  1.00000  1.00000  1.00000  1.00000

  * THERMODYNAMIC PROPERTIES FITTED TO 20000.K

 NOTE. WEIGHT FRACTION OF FUEL IN TOTAL FUELS AND OF OXIDANT IN TOTAL OXIDANTS









               THERMODYNAMIC EQUILIBRIUM PROPERTIES AT ASSIGNED

                           TEMPERATURE AND PRESSURE

 CASE =                

             REACTANT                    WT FRACTION      ENERGY      TEMP
                                          (SEE NOTE)     KJ/KG-MOL      K  
             H2                           1.0000000         0.000      0.000

 O/F=    0.00000  %FUEL=100.000000  R,EQ.RATIO= 0.000000  PHI,EQ.RATIO= 0.000000

 THERMODYNAMIC PROPERTIES

 P, BAR            670.00   670.00   670.00   670.00   670.00   670.00   670.00   740.00
 T, K              690.00   695.00   700.00   705.00   710.00   715.00   720.00   650.00
 RHO, KG/CU M    2.3543 1 2.3373 1 2.3206 1 2.3042 1 2.2879 1 2.2719 1 2.2562 1 2.7602 1
 H, KJ/KG         5681.84  5754.85  5827.87  5900.91  5973.97  6047.05  6120.15  5098.48
 U, KJ/KG         2835.94  2888.32  2940.72  2993.14  3045.58  3098.04  3150.51  2417.55
 G, KJ/KG        -28915.4 -29166.4 -29417.9 -29669.9 -29922.5 -30175.5 -30429.1 -26660.7
 S, KJ/(KG)(K)    50.1410  50.2464  50.3511  50.4551  50.5583  50.6609  50.7628  48.8602

 M, (1/n)           2.016    2.016    2.016    2.016    2.016    2.016    2.016    2.016
 (dLV/dLP)t      -1.00000 -1.00000 -1.00000 -1.00000 -1.00000 -1.00000 -1.00000 -1.00000
 (dLV/dLT)p        1.0000   1.0000   1.0000   1.0000   1.0000   1.0000   1.0000   1.0000
 Cp, KJ/(KG)(K)   14.5984  14.6022  14.6061  14.6100  14.6140  14.6181  14.6223  14.5709
 GAMMAs            1.3938   1.3937   1.3935   1.3934   1.3932   1.3931   1.3929   1.3948
 SON VEL,M/SEC     1991.6   1998.7   2005.8   2012.8   2019.9   2026.9   2033.8   1933.8

 TRANSPORT PROPERTIES (GASES ONLY)
   CONDUCTIVITY IN UNITS OF MILLIWATTS/(CM)(K)

 VISC,MILLIPOISE  0.15840  0.15920  0.16000  0.16080  0.16159  0.16238  0.16317  0.15196

  WITH EQUILIBRIUM REACTIONS

 Cp, KJ/(KG)(K)   14.5984  14.6022  14.6061  14.6100  14.6140  14.6181  14.6223  14.5709
 CONDUCTIVITY      3.3533   3.3709   3.3886   3.4062   3.4238   3.4414   3.4590   3.2118
 PRANDTL NUMBER    0.6896   0.6896   0.6897   0.6897   0.6897   0.6898   0.6898   0.6894

  WITH FROZEN REACTIONS

 Cp, KJ/(KG)(K)   14.5984  14.6022  14.6061  14.6100  14.6140  14.6181  14.6223  14.5709
 CONDUCTIVITY      3.3533   3.3709   3.3886   3.4062   3.4238   3.4414   3.4590   3.2118
 PRANDTL NUMBER    0.6896   0.6896   0.6897   0.6897   0.6897   0.6898   0.6898   0.6894

 MOLE FRACTIONS

 *H2              1.00000  1.00000  1.00000  1.00000  1.00000  1.00000  1.00000  1.00000

  * THERMODYNAMIC PROPERTIES FITTED TO 20000.K

 NOTE. WEIGHT FRACTION OF FUEL IN TOTAL FUELS AND OF OXIDANT IN TOTAL OXIDANTS









               THERMODYNAMIC EQUILIBRIUM PROPERTIES AT ASSIGNED

                           TEMPERATURE AND PRESSURE

 CASE =                

             REACTANT                    WT FRACTION      ENERGY      TEMP
                                          (SEE NOTE)     KJ/KG-MOL      K  
             H2                           1.0000000         0.000      0.000

 O/F=    0.00000  %FUEL=100.000000  R,EQ.RATIO= 0.000000  PHI,EQ.RATIO= 0.000000

 THERMODYNAMIC PROPERTIES

 P, BAR            740.00   740.00   740.00   740.00   740.00   740.00   740.00   740.00
 T, K              655.00   660.00   665.00   670.00   675.00   680.00   685.00   690.00
 RHO, KG/CU M    2.7392 1 2.7184 1 2.6980 1 2.6779 1 2.6580 1 2.6385 1 2.6192 1 2.6002 1
 H, KJ/KG         5171.34  5244.21  5317.11  5390.02  5462.95  5535.90  5608.86  5681.84
 U, KJ/KG         2469.79  2522.05  2574.32  2626.61  2678.92  2731.24  2783.58  2835.94
 G, KJ/KG        -26905.2 -27150.4 -27396.0 -27642.3 -27889.1 -28136.4 -28384.2 -28632.6
 S, KJ/(KG)(K)    48.9719  49.0827  49.1927  49.3019  49.4104  49.5181  49.6250  49.7311

 M, (1/n)           2.016    2.016    2.016    2.016    2.016    2.016    2.016    2.016
 (dLV/dLP)t      -1.00000 -1.00000 -1.00000 -1.00000 -1.00000 -1.00000 -1.00000 -1.00000
 (dLV/dLT)p        1.0000   1.0000   1.0000   1.0000   1.0000   1.0000   1.0000   1.0000
 Cp, KJ/(KG)(K)   14.5741  14.5773  14.5806  14.5840  14.5875  14.5911  14.5947  14.5984
 GAMMAs            1.3947   1.3946   1.3945   1.3943   1.3942   1.3941   1.3939   1.3938
 SON VEL,M/SEC     1941.1   1948.4   1955.7   1962.9   1970.2   1977.3   1984.5   1991.6

 TRANSPORT PROPERTIES (GASES ONLY)
   CONDUCTIVITY IN UNITS OF MILLIWATTS/(CM)(K)

 VISC,MILLIPOISE  0.15277  0.15358  0.15439  0.15520  0.15600  0.15680  0.15761  0.15840

  WITH EQUILIBRIUM REACTIONS

 Cp, KJ/(KG)(K)   14.5741  14.5773  14.5806  14.5840  14.5875  14.5911  14.5947  14.5984
 CONDUCTIVITY      3.2296   3.2473   3.2650   3.2827   3.3003   3.3180   3.3357   3.3533
 PRANDTL NUMBER    0.6894   0.6894   0.6895   0.6895   0.6895   0.6896   0.6896   0.6896

  WITH FROZEN REACTIONS

 Cp, KJ/(KG)(K)   14.5741  14.5773  14.5806  14.5840  14.5875  14.5911  14.5947  14.5984
 CONDUCTIVITY      3.2296   3.2473   3.2650   3.2827   3.3003   3.3180   3.3357   3.3533
 PRANDTL NUMBER    0.6894   0.6894   0.6895   0.6895   0.6895   0.6896   0.6896   0.6896

 MOLE FRACTIONS

 *H2              1.00000  1.00000  1.00000  1.00000  1.00000  1.00000  1.00000  1.00000

  * THERMODYNAMIC PROPERTIES FITTED TO 20000.K

 NOTE. WEIGHT FRACTION OF FUEL IN TOTAL FUELS AND OF OXIDANT IN TOTAL OXIDANTS









               THERMODYNAMIC EQUILIBRIUM PROPERTIES AT ASSIGNED

                           TEMPERATURE AND PRESSURE

 CASE =                

             REACTANT                    WT FRACTION      ENERGY      TEMP
                                          (SEE NOTE)     KJ/KG-MOL      K  
             H2                           1.0000000         0.000      0.000

 O/F=    0.00000  %FUEL=100.000000  R,EQ.RATIO= 0.000000  PHI,EQ.RATIO= 0.000000

 THERMODYNAMIC PROPERTIES

 P, BAR            740.00   740.00   740.00   740.00   740.00   740.00   825.00   825.00
 T, K              695.00   700.00   705.00   710.00   715.00   720.00   650.00   655.00
 RHO, KG/CU M    2.5815 1 2.5631 1 2.5449 1 2.5270 1 2.5093 1 2.4919 1 3.0773 1 3.0538 1
 H, KJ/KG         5754.85  5827.87  5900.91  5973.97  6047.05  6120.15  5098.48  5171.34
 U, KJ/KG         2888.32  2940.72  2993.14  3045.58  3098.04  3150.51  2417.55  2469.79
 G, KJ/KG        -28881.6 -29131.0 -29381.0 -29631.4 -29882.4 -30134.0 -26369.2 -26611.5
 S, KJ/(KG)(K)    49.8365  49.9412  50.0452  50.1485  50.2510  50.3529  48.4118  48.5234

 M, (1/n)           2.016    2.016    2.016    2.016    2.016    2.016    2.016    2.016
 (dLV/dLP)t      -1.00000 -1.00000 -1.00000 -1.00000 -1.00000 -1.00000 -1.00000 -1.00000
 (dLV/dLT)p        1.0000   1.0000   1.0000   1.0000   1.0000   1.0000   1.0000   1.0000
 Cp, KJ/(KG)(K)   14.6022  14.6061  14.6100  14.6140  14.6181  14.6223  14.5709  14.5741
 GAMMAs            1.3937   1.3935   1.3934   1.3932   1.3931   1.3929   1.3948   1.3947
 SON VEL,M/SEC     1998.7   2005.8   2012.8   2019.9   2026.9   2033.8   1933.8   1941.1

 TRANSPORT PROPERTIES (GASES ONLY)
   CONDUCTIVITY IN UNITS OF MILLIWATTS/(CM)(K)

 VISC,MILLIPOISE  0.15920  0.16000  0.16080  0.16159  0.16238  0.16317  0.15196  0.15277

  WITH EQUILIBRIUM REACTIONS

 Cp, KJ/(KG)(K)   14.6022  14.6061  14.6100  14.6140  14.6181  14.6223  14.5709  14.5741
 CONDUCTIVITY      3.3709   3.3886   3.4062   3.4238   3.4414   3.4590   3.2118   3.2296
 PRANDTL NUMBER    0.6896   0.6897   0.6897   0.6897   0.6898   0.6898   0.6894   0.6894

  WITH FROZEN REACTIONS

 Cp, KJ/(KG)(K)   14.6022  14.6061  14.6100  14.6140  14.6181  14.6223  14.5709  14.5741
 CONDUCTIVITY      3.3709   3.3886   3.4062   3.4238   3.4414   3.4590   3.2118   3.2296
 PRANDTL NUMBER    0.6896   0.6897   0.6897   0.6897   0.6898   0.6898   0.6894   0.6894

 MOLE FRACTIONS

 *H2              1.00000  1.00000  1.00000  1.00000  1.00000  1.00000  1.00000  1.00000

  * THERMODYNAMIC PROPERTIES FITTED TO 20000.K

 NOTE. WEIGHT FRACTION OF FUEL IN TOTAL FUELS AND OF OXIDANT IN TOTAL OXIDANTS









               THERMODYNAMIC EQUILIBRIUM PROPERTIES AT ASSIGNED

                           TEMPERATURE AND PRESSURE

 CASE =                

             REACTANT                    WT FRACTION      ENERGY      TEMP
                                          (SEE NOTE)     KJ/KG-MOL      K  
             H2                           1.0000000         0.000      0.000

 O/F=    0.00000  %FUEL=100.000000  R,EQ.RATIO= 0.000000  PHI,EQ.RATIO= 0.000000

 THERMODYNAMIC PROPERTIES

 P, BAR            825.00   825.00   825.00   825.00   825.00   825.00   825.00   825.00
 T, K              660.00   665.00   670.00   675.00   680.00   685.00   690.00   695.00
 RHO, KG/CU M    3.0307 1 3.0079 1 2.9854 1 2.9633 1 2.9415 1 2.9201 1 2.8989 1 2.8781 1
 H, KJ/KG         5244.21  5317.11  5390.02  5462.95  5535.90  5608.86  5681.84  5754.85
 U, KJ/KG         2522.05  2574.32  2626.61  2678.92  2731.24  2783.58  2835.94  2888.32
 G, KJ/KG        -26854.4 -27097.8 -27341.8 -27586.3 -27831.4 -28077.0 -28323.2 -28569.9
 S, KJ/(KG)(K)    48.6342  48.7442  48.8535  48.9619  49.0696  49.1765  49.2827  49.3881

 M, (1/n)           2.016    2.016    2.016    2.016    2.016    2.016    2.016    2.016
 (dLV/dLP)t      -1.00000 -1.00000 -1.00000 -1.00000 -1.00000 -1.00000 -1.00000 -1.00000
 (dLV/dLT)p        1.0000   1.0000   1.0000   1.0000   1.0000   1.0000   1.0000   1.0000
 Cp, KJ/(KG)(K)   14.5773  14.5806  14.5840  14.5875  14.5911  14.5947  14.5984  14.6022
 GAMMAs            1.3946   1.3945   1.3943   1.3942   1.3941   1.3939   1.3938   1.3937
 SON VEL,M/SEC     1948.4   1955.7   1962.9   1970.2   1977.3   1984.5   1991.6   1998.7

 TRANSPORT PROPERTIES (GASES ONLY)
   CONDUCTIVITY IN UNITS OF MILLIWATTS/(CM)(K)

 VISC,MILLIPOISE  0.15358  0.15439  0.15520  0.15600  0.15680  0.15761  0.15840  0.15920

  WITH EQUILIBRIUM REACTIONS

 Cp, KJ/(KG)(K)   14.5773  14.5806  14.5840  14.5875  14.5911  14.5947  14.5984  14.6022
 CONDUCTIVITY      3.2473   3.2650   3.2827   3.3003   3.3180   3.3357   3.3533   3.3709
 PRANDTL NUMBER    0.6894   0.6895   0.6895   0.6895   0.6896   0.6896   0.6896   0.6896

  WITH FROZEN REACTIONS

 Cp, KJ/(KG)(K)   14.5773  14.5806  14.5840  14.5875  14.5911  14.5947  14.5984  14.6022
 CONDUCTIVITY      3.2473   3.2650   3.2827   3.3003   3.3180   3.3357   3.3533   3.3709
 PRANDTL NUMBER    0.6894   0.6895   0.6895   0.6895   0.6896   0.6896   0.6896   0.6896

 MOLE FRACTIONS

 *H2              1.00000  1.00000  1.00000  1.00000  1.00000  1.00000  1.00000  1.00000

  * THERMODYNAMIC PROPERTIES FITTED TO 20000.K

 NOTE. WEIGHT FRACTION OF FUEL IN TOTAL FUELS AND OF OXIDANT IN TOTAL OXIDANTS









               THERMODYNAMIC EQUILIBRIUM PROPERTIES AT ASSIGNED

                           TEMPERATURE AND PRESSURE

 CASE =                

             REACTANT                    WT FRACTION      ENERGY      TEMP
                                          (SEE NOTE)     KJ/KG-MOL      K  
             H2                           1.0000000         0.000      0.000

 O/F=    0.00000  %FUEL=100.000000  R,EQ.RATIO= 0.000000  PHI,EQ.RATIO= 0.000000

 THERMODYNAMIC PROPERTIES

 P, BAR            825.00   825.00   825.00   825.00   825.00   910.00   910.00   910.00
 T, K              700.00   705.00   710.00   715.00   720.00   650.00   655.00   660.00
 RHO, KG/CU M    2.8575 1 2.8372 1 2.8172 1 2.7975 1 2.7781 1 3.3944 1 3.3684 1 3.3429 1
 H, KJ/KG         5827.87  5900.91  5973.97  6047.05  6120.15  5098.48  5171.34  5244.21
 U, KJ/KG         2940.72  2993.14  3045.58  3098.04  3150.51  2417.55  2469.79  2522.05
 G, KJ/KG        -28817.1 -29064.8 -29313.0 -29561.8 -29811.1 -26106.3 -26346.6 -26587.4
 S, KJ/(KG)(K)    49.4928  49.5967  49.7000  49.8026  49.9045  48.0073  48.1189  48.2298

 M, (1/n)           2.016    2.016    2.016    2.016    2.016    2.016    2.016    2.016
 (dLV/dLP)t      -1.00000 -1.00000 -1.00000 -1.00000 -1.00000 -1.00000 -1.00000 -1.00000
 (dLV/dLT)p        1.0000   1.0000   1.0000   1.0000   1.0000   1.0000   1.0000   1.0000
 Cp, KJ/(KG)(K)   14.6061  14.6100  14.6140  14.6181  14.6223  14.5709  14.5741  14.5773
 GAMMAs            1.3935   1.3934   1.3932   1.3931   1.3929   1.3948   1.3947   1.3946
 SON VEL,M/SEC     2005.8   2012.8   2019.9   2026.9   2033.8   1933.8   1941.1   1948.4

 TRANSPORT PROPERTIES (GASES ONLY)
   CONDUCTIVITY IN UNITS OF MILLIWATTS/(CM)(K)

 VISC,MILLIPOISE  0.16000  0.16080  0.16159  0.16238  0.16317  0.15196  0.15277  0.15358

  WITH EQUILIBRIUM REACTIONS

 Cp, KJ/(KG)(K)   14.6061  14.6100  14.6140  14.6181  14.6223  14.5709  14.5741  14.5773
 CONDUCTIVITY      3.3886   3.4062   3.4238   3.4414   3.4590   3.2118   3.2296   3.2473
 PRANDTL NUMBER    0.6897   0.6897   0.6897   0.6898   0.6898   0.6894   0.6894   0.6894

  WITH FROZEN REACTIONS

 Cp, KJ/(KG)(K)   14.6061  14.6100  14.6140  14.6181  14.6223  14.5709  14.5741  14.5773
 CONDUCTIVITY      3.3886   3.4062   3.4238   3.4414   3.4590   3.2118   3.2296   3.2473
 PRANDTL NUMBER    0.6897   0.6897   0.6897   0.6898   0.6898   0.6894   0.6894   0.6894

 MOLE FRACTIONS

 *H2              1.00000  1.00000  1.00000  1.00000  1.00000  1.00000  1.00000  1.00000

  * THERMODYNAMIC PROPERTIES FITTED TO 20000.K

 NOTE. WEIGHT FRACTION OF FUEL IN TOTAL FUELS AND OF OXIDANT IN TOTAL OXIDANTS









               THERMODYNAMIC EQUILIBRIUM PROPERTIES AT ASSIGNED

                           TEMPERATURE AND PRESSURE

 CASE =                

             REACTANT                    WT FRACTION      ENERGY      TEMP
                                          (SEE NOTE)     KJ/KG-MOL      K  
             H2                           1.0000000         0.000      0.000

 O/F=    0.00000  %FUEL=100.000000  R,EQ.RATIO= 0.000000  PHI,EQ.RATIO= 0.000000

 THERMODYNAMIC PROPERTIES

 P, BAR            910.00   910.00   910.00   910.00   910.00   910.00   910.00   910.00
 T, K              665.00   670.00   675.00   680.00   685.00   690.00   695.00   700.00
 RHO, KG/CU M    3.3178 1 3.2930 1 3.2686 1 3.2446 1 3.2209 1 3.1976 1 3.1746 1 3.1519 1
 H, KJ/KG         5317.11  5390.02  5462.95  5535.90  5608.86  5681.84  5754.85  5827.87
 U, KJ/KG         2574.32  2626.61  2678.92  2731.24  2783.58  2835.94  2888.32  2940.72
 G, KJ/KG        -26828.9 -27070.8 -27313.3 -27556.4 -27800.0 -28044.1 -28288.8 -28534.0
 S, KJ/(KG)(K)    48.3398  48.4490  48.5575  48.6651  48.7720  48.8782  48.9836  49.0883

 M, (1/n)           2.016    2.016    2.016    2.016    2.016    2.016    2.016    2.016
 (dLV/dLP)t      -1.00000 -1.00000 -1.00000 -1.00000 -1.00000 -1.00000 -1.00000 -1.00000
 (dLV/dLT)p        1.0000   1.0000   1.0000   1.0000   1.0000   1.0000   1.0000   1.0000
 Cp, KJ/(KG)(K)   14.5806  14.5840  14.5875  14.5911  14.5947  14.5984  14.6022  14.6061
 GAMMAs            1.3945   1.3943   1.3942   1.3941   1.3939   1.3938   1.3937   1.3935
 SON VEL,M/SEC     1955.7   1962.9   1970.2   1977.3   1984.5   1991.6   1998.7   2005.8

 TRANSPORT PROPERTIES (GASES ONLY)
   CONDUCTIVITY IN UNITS OF MILLIWATTS/(CM)(K)

 VISC,MILLIPOISE  0.15439  0.15520  0.15600  0.15680  0.15761  0.15840  0.15920  0.16000

  WITH EQUILIBRIUM REACTIONS

 Cp, KJ/(KG)(K)   14.5806  14.5840  14.5875  14.5911  14.5947  14.5984  14.6022  14.6061
 CONDUCTIVITY      3.2650   3.2827   3.3003   3.3180   3.3357   3.3533   3.3709   3.3886
 PRANDTL NUMBER    0.6895   0.6895   0.6895   0.6896   0.6896   0.6896   0.6896   0.6897

  WITH FROZEN REACTIONS

 Cp, KJ/(KG)(K)   14.5806  14.5840  14.5875  14.5911  14.5947  14.5984  14.6022  14.6061
 CONDUCTIVITY      3.2650   3.2827   3.3003   3.3180   3.3357   3.3533   3.3709   3.3886
 PRANDTL NUMBER    0.6895   0.6895   0.6895   0.6896   0.6896   0.6896   0.6896   0.6897

 MOLE FRACTIONS

 *H2              1.00000  1.00000  1.00000  1.00000  1.00000  1.00000  1.00000  1.00000

  * THERMODYNAMIC PROPERTIES FITTED TO 20000.K

 NOTE. WEIGHT FRACTION OF FUEL IN TOTAL FUELS AND OF OXIDANT IN TOTAL OXIDANTS









               THERMODYNAMIC EQUILIBRIUM PROPERTIES AT ASSIGNED

                           TEMPERATURE AND PRESSURE

 CASE =                

             REACTANT                    WT FRACTION      ENERGY      TEMP
                                          (SEE NOTE)     KJ/KG-MOL      K  
             H2                           1.0000000         0.000      0.000

 O/F=    0.00000  %FUEL=100.000000  R,EQ.RATIO= 0.000000  PHI,EQ.RATIO= 0.000000

 THERMODYNAMIC PROPERTIES

 P, BAR            910.00   910.00   910.00   910.00
 T, K              705.00   710.00   715.00   720.00
 RHO, KG/CU M    3.1296 1 3.1075 1 3.0858 1 3.0644 1
 H, KJ/KG         5900.91  5973.97  6047.05  6120.15
 U, KJ/KG         2993.14  3045.58  3098.04  3150.51
 G, KJ/KG        -28779.7 -29025.9 -29272.6 -29519.9
 S, KJ/(KG)(K)    49.1923  49.2955  49.3981  49.5000

 M, (1/n)           2.016    2.016    2.016    2.016
 (dLV/dLP)t      -1.00000 -1.00000 -1.00000 -1.00000
 (dLV/dLT)p        1.0000   1.0000   1.0000   1.0000
 Cp, KJ/(KG)(K)   14.6100  14.6140  14.6181  14.6223
 GAMMAs            1.3934   1.3932   1.3931   1.3929
 SON VEL,M/SEC     2012.8   2019.9   2026.9   2033.8

 TRANSPORT PROPERTIES (GASES ONLY)
   CONDUCTIVITY IN UNITS OF MILLIWATTS/(CM)(K)

 VISC,MILLIPOISE  0.16080  0.16159  0.16238  0.16317

  WITH EQUILIBRIUM REACTIONS

 Cp, KJ/(KG)(K)   14.6100  14.6140  14.6181  14.6223
 CONDUCTIVITY      3.4062   3.4238   3.4414   3.4590
 PRANDTL NUMBER    0.6897   0.6897   0.6898   0.6898

  WITH FROZEN REACTIONS

 Cp, KJ/(KG)(K)   14.6100  14.6140  14.6181  14.6223
 CONDUCTIVITY      3.4062   3.4238   3.4414   3.4590
 PRANDTL NUMBER    0.6897   0.6897   0.6898   0.6898

 MOLE FRACTIONS

 *H2              1.00000  1.00000  1.00000  1.00000

  * THERMODYNAMIC PROPERTIES FITTED TO 20000.K

 NOTE. WEIGHT FRACTION OF FUEL IN TOTAL FUELS AND OF OXIDANT IN TOTAL OXIDANTS



  
