
 *******************************************************************************

         NASA-GLENN CHEMICAL EQUILIBRIUM PROGRAM CEA2, MAY 21, 2004
                   BY  BONNIE MCBRIDE AND SANFORD GORDON
      REFS: NASA RP-1311, PART I, 1994 AND NASA RP-1311, PART II, 1996

 *******************************************************************************



  prob tp ions
  p,bar= 0.0225,0.025,0.028,0.031,0.035,0.039,0.044,0.049,0.054,0.06,0.067,0.074,
 0.0825,0.091,0.1
  t,k= 525,530,535,540,545,550,555,560,565,570,575,580,585,590,595
  
  
  reac
  fuel H2                wt%=100.0000
  oxid H2                wt%=100.0000
  
  output short
  
  output massf
  
  output siunits
  
  output transport
  
 end





               THERMODYNAMIC EQUILIBRIUM PROPERTIES AT ASSIGNED

                           TEMPERATURE AND PRESSURE

 CASE =                

             REACTANT                    WT FRACTION      ENERGY      TEMP
                                          (SEE NOTE)     KJ/KG-MOL      K  
 FUEL        H2                           1.0000000         0.000      0.000
 OXIDANT     H2                           1.0000000         0.000      0.000

 O/F=    1.00000  %FUEL= 50.000000  R,EQ.RATIO= 0.000000  PHI,EQ.RATIO=-1.000000

 THERMODYNAMIC PROPERTIES

 P, BAR           0.02250  0.02250  0.02250  0.02250  0.02250  0.02250  0.02250  0.02250
 T, K              525.00   530.00   535.00   540.00   545.00   550.00   555.00   560.00
 RHO, KG/CU M    1.0391-3 1.0293-3 1.0197-3 1.0102-3 1.0010-3 9.9186-4 9.8293-4 9.7415-4
 H, KJ/KG         3280.97  3353.55  3426.15  3498.75  3571.36  3643.98  3716.60  3789.24
 U, KJ/KG         1115.61  1167.58  1219.55  1271.53  1323.52  1375.52  1427.52  1479.53
 G, KJ/KG        -43262.3 -43705.8 -44150.1 -44595.0 -45040.7 -45487.0 -45934.0 -46381.6
 S, KJ/(KG)(K)    88.6539  88.7913  88.9275  89.0626  89.1964  89.3290  89.4605  89.5908

 M, (1/n)           2.016    2.016    2.016    2.016    2.016    2.016    2.016    2.016
 (dLV/dLP)t      -1.00000 -0.99999 -0.99999 -0.99999 -0.99999 -0.99999 -0.99999 -0.99999
 (dLV/dLT)p        1.0000   1.0000   1.0000   1.0000   1.0000   1.0000   1.0000   1.0000
 Cp, KJ/(KG)(K)   14.5174  14.5186  14.5200  14.5214  14.5228  14.5243  14.5259  14.5276
 GAMMAs            1.3969   1.3968   1.3968   1.3967   1.3967   1.3966   1.3965   1.3965
 SON VEL,M/SEC     1739.2   1747.4   1755.6   1763.7   1771.9   1779.9   1788.0   1796.0

 TRANSPORT PROPERTIES (GASES ONLY)
   CONDUCTIVITY IN UNITS OF MILLIWATTS/(CM)(K)

 VISC,MILLIPOISE  0.13080  0.13190  0.13282  0.13369  0.13455  0.13540  0.13624  0.13709

  WITH EQUILIBRIUM REACTIONS

 Cp, KJ/(KG)(K)   14.5174  14.5186  14.5200  14.5214  14.5228  14.5243  14.5259  14.5276
 CONDUCTIVITY      2.7399   2.7755   2.7987   2.8182   2.8367   2.8548   2.8729   2.8909
 PRANDTL NUMBER    0.6930   0.6899   0.6891   0.6889   0.6889   0.6889   0.6889   0.6889

  WITH FROZEN REACTIONS

 Cp, KJ/(KG)(K)   14.5174  14.5186  14.5200  14.5214  14.5228  14.5243  14.5259  14.5276
 CONDUCTIVITY      2.7399   2.7755   2.7987   2.8182   2.8367   2.8548   2.8729   2.8909
 PRANDTL NUMBER    0.6930   0.6899   0.6891   0.6889   0.6889   0.6889   0.6889   0.6889

 MASS FRACTIONS

 *H2              1.00000  1.00000  1.00000  1.00000  1.00000  1.00000  1.00000  1.00000

  * THERMODYNAMIC PROPERTIES FITTED TO 20000.K

 NOTE. WEIGHT FRACTION OF FUEL IN TOTAL FUELS AND OF OXIDANT IN TOTAL OXIDANTS









               THERMODYNAMIC EQUILIBRIUM PROPERTIES AT ASSIGNED

                           TEMPERATURE AND PRESSURE

 CASE =                

             REACTANT                    WT FRACTION      ENERGY      TEMP
                                          (SEE NOTE)     KJ/KG-MOL      K  
 FUEL        H2                           1.0000000         0.000      0.000
 OXIDANT     H2                           1.0000000         0.000      0.000

 O/F=    1.00000  %FUEL= 50.000000  R,EQ.RATIO= 0.000000  PHI,EQ.RATIO=-1.000000

 THERMODYNAMIC PROPERTIES

 P, BAR           0.02250  0.02250  0.02250  0.02250  0.02250  0.02250  0.02250  0.02500
 T, K              565.00   570.00   575.00   580.00   585.00   590.00   595.00   525.00
 RHO, KG/CU M    9.6553-4 9.5706-4 9.4874-4 9.4056-4 9.3252-4 9.2462-4 9.1685-4 1.1545-3
 H, KJ/KG         3861.88  3934.53  4007.19  4079.86  4152.54  4225.23  4297.93  3280.96
 U, KJ/KG         1531.55  1583.58  1635.62  1687.67  1739.72  1791.79  1843.87  1115.61
 G, KJ/KG        -46829.9 -47278.8 -47728.3 -48178.5 -48629.3 -49080.8 -49532.8 -43034.1
 S, KJ/(KG)(K)    89.7199  89.8479  89.9748  90.1007  90.2254  90.3492  90.4719  88.2191

 M, (1/n)           2.016    2.016    2.016    2.016    2.016    2.016    2.016    2.016
 (dLV/dLP)t      -0.99999 -0.99999 -0.99999 -0.99999 -0.99999 -0.99999 -0.99999 -0.99999
 (dLV/dLT)p        1.0000   1.0000   1.0000   1.0000   1.0000   1.0000   1.0000   1.0000
 Cp, KJ/(KG)(K)   14.5293  14.5311  14.5330  14.5350  14.5370  14.5391  14.5413  14.5174
 GAMMAs            1.3964   1.3963   1.3963   1.3962   1.3961   1.3960   1.3960   1.3969
 SON VEL,M/SEC     1803.9   1811.8   1819.7   1827.6   1835.4   1843.1   1850.9   1739.2

 TRANSPORT PROPERTIES (GASES ONLY)
   CONDUCTIVITY IN UNITS OF MILLIWATTS/(CM)(K)

 VISC,MILLIPOISE  0.13793  0.13877  0.13961  0.14044  0.14128  0.14211  0.14294  0.13101

  WITH EQUILIBRIUM REACTIONS

 Cp, KJ/(KG)(K)   14.5293  14.5311  14.5330  14.5350  14.5370  14.5391  14.5413  14.5174
 CONDUCTIVITY      2.9089   2.9268   2.9448   2.9627   2.9806   2.9984   3.0163   2.7553
 PRANDTL NUMBER    0.6889   0.6890   0.6890   0.6890   0.6891   0.6891   0.6891   0.6903

  WITH FROZEN REACTIONS

 Cp, KJ/(KG)(K)   14.5293  14.5311  14.5330  14.5350  14.5370  14.5391  14.5413  14.5174
 CONDUCTIVITY      2.9089   2.9268   2.9448   2.9627   2.9806   2.9984   3.0163   2.7553
 PRANDTL NUMBER    0.6889   0.6890   0.6890   0.6890   0.6891   0.6891   0.6891   0.6903

 MASS FRACTIONS

 *H2              1.00000  1.00000  1.00000  1.00000  1.00000  1.00000  1.00000  1.00000

  * THERMODYNAMIC PROPERTIES FITTED TO 20000.K

 NOTE. WEIGHT FRACTION OF FUEL IN TOTAL FUELS AND OF OXIDANT IN TOTAL OXIDANTS









               THERMODYNAMIC EQUILIBRIUM PROPERTIES AT ASSIGNED

                           TEMPERATURE AND PRESSURE

 CASE =                

             REACTANT                    WT FRACTION      ENERGY      TEMP
                                          (SEE NOTE)     KJ/KG-MOL      K  
 FUEL        H2                           1.0000000         0.000      0.000
 OXIDANT     H2                           1.0000000         0.000      0.000

 O/F=    1.00000  %FUEL= 50.000000  R,EQ.RATIO= 0.000000  PHI,EQ.RATIO=-1.000000

 THERMODYNAMIC PROPERTIES

 P, BAR           0.02500  0.02500  0.02500  0.02500  0.02500  0.02500  0.02500  0.02500
 T, K              530.00   535.00   540.00   545.00   550.00   555.00   560.00   565.00
 RHO, KG/CU M    1.1437-3 1.1330-3 1.1225-3 1.1122-3 1.1021-3 1.0921-3 1.0824-3 1.0728-3
 H, KJ/KG         3353.55  3426.15  3498.75  3571.36  3643.98  3716.60  3789.24  3861.88
 U, KJ/KG         1167.58  1219.55  1271.53  1323.52  1375.52  1427.52  1479.53  1531.55
 G, KJ/KG        -43475.5 -43917.6 -44360.4 -44803.8 -45248.0 -45692.8 -46138.2 -46584.3
 S, KJ/(KG)(K)    88.3566  88.4929  88.6280  88.7618  88.8945  89.0259  89.1562  89.2853

 M, (1/n)           2.016    2.016    2.016    2.016    2.016    2.016    2.016    2.016
 (dLV/dLP)t      -0.99999 -0.99999 -0.99999 -0.99999 -0.99999 -0.99999 -0.99999 -0.99999
 (dLV/dLT)p        1.0000   1.0000   1.0000   1.0000   1.0000   1.0000   1.0000   1.0000
 Cp, KJ/(KG)(K)   14.5186  14.5200  14.5214  14.5228  14.5243  14.5259  14.5276  14.5293
 GAMMAs            1.3968   1.3968   1.3967   1.3967   1.3966   1.3965   1.3965   1.3964
 SON VEL,M/SEC     1747.4   1755.6   1763.7   1771.9   1779.9   1788.0   1796.0   1803.9

 TRANSPORT PROPERTIES (GASES ONLY)
   CONDUCTIVITY IN UNITS OF MILLIWATTS/(CM)(K)

 VISC,MILLIPOISE  0.13196  0.13284  0.13370  0.13455  0.13540  0.13624  0.13709  0.13793

  WITH EQUILIBRIUM REACTIONS

 Cp, KJ/(KG)(K)   14.5186  14.5200  14.5214  14.5228  14.5243  14.5259  14.5276  14.5293
 CONDUCTIVITY      2.7800   2.7999   2.8185   2.8368   2.8549   2.8729   2.8909   2.9089
 PRANDTL NUMBER    0.6892   0.6889   0.6888   0.6888   0.6889   0.6889   0.6889   0.6889

  WITH FROZEN REACTIONS

 Cp, KJ/(KG)(K)   14.5186  14.5200  14.5214  14.5228  14.5243  14.5259  14.5276  14.5293
 CONDUCTIVITY      2.7800   2.7999   2.8185   2.8368   2.8549   2.8729   2.8909   2.9089
 PRANDTL NUMBER    0.6892   0.6889   0.6888   0.6888   0.6889   0.6889   0.6889   0.6889

 MASS FRACTIONS

 *H2              1.00000  1.00000  1.00000  1.00000  1.00000  1.00000  1.00000  1.00000

  * THERMODYNAMIC PROPERTIES FITTED TO 20000.K

 NOTE. WEIGHT FRACTION OF FUEL IN TOTAL FUELS AND OF OXIDANT IN TOTAL OXIDANTS









               THERMODYNAMIC EQUILIBRIUM PROPERTIES AT ASSIGNED

                           TEMPERATURE AND PRESSURE

 CASE =                

             REACTANT                    WT FRACTION      ENERGY      TEMP
                                          (SEE NOTE)     KJ/KG-MOL      K  
 FUEL        H2                           1.0000000         0.000      0.000
 OXIDANT     H2                           1.0000000         0.000      0.000

 O/F=    1.00000  %FUEL= 50.000000  R,EQ.RATIO= 0.000000  PHI,EQ.RATIO=-1.000000

 THERMODYNAMIC PROPERTIES

 P, BAR           0.02500  0.02500  0.02500  0.02500  0.02500  0.02500  0.02800  0.02800
 T, K              570.00   575.00   580.00   585.00   590.00   595.00   525.00   530.00
 RHO, KG/CU M    1.0634-3 1.0542-3 1.0451-3 1.0361-3 1.0274-3 1.0187-3 1.2931-3 1.2809-3
 H, KJ/KG         3934.53  4007.19  4079.86  4152.54  4225.23  4297.93  3280.96  3353.55
 U, KJ/KG         1583.58  1635.62  1687.67  1739.72  1791.79  1843.87  1115.61  1167.58
 G, KJ/KG        -47031.1 -47478.5 -47926.5 -48375.1 -48824.4 -49274.3 -42788.7 -43227.7
 S, KJ/(KG)(K)    89.4134  89.5403  89.6661  89.7909  89.9146  90.0373  87.7517  87.8892

 M, (1/n)           2.016    2.016    2.016    2.016    2.016    2.016    2.016    2.016
 (dLV/dLP)t      -0.99999 -0.99999 -0.99999 -0.99999 -0.99999 -0.99999 -0.99999 -0.99999
 (dLV/dLT)p        1.0000   1.0000   1.0000   1.0000   1.0000   1.0000   1.0000   1.0000
 Cp, KJ/(KG)(K)   14.5311  14.5330  14.5350  14.5370  14.5391  14.5413  14.5174  14.5186
 GAMMAs            1.3963   1.3963   1.3962   1.3961   1.3960   1.3960   1.3969   1.3968
 SON VEL,M/SEC     1811.8   1819.7   1827.6   1835.4   1843.1   1850.9   1739.2   1747.4

 TRANSPORT PROPERTIES (GASES ONLY)
   CONDUCTIVITY IN UNITS OF MILLIWATTS/(CM)(K)

 VISC,MILLIPOISE  0.13877  0.13961  0.14044  0.14128  0.14211  0.14294  0.13101  0.13196

  WITH EQUILIBRIUM REACTIONS

 Cp, KJ/(KG)(K)   14.5311  14.5330  14.5350  14.5370  14.5391  14.5413  14.5174  14.5186
 CONDUCTIVITY      2.9268   2.9448   2.9627   2.9806   2.9984   3.0163   2.7553   2.7800
 PRANDTL NUMBER    0.6890   0.6890   0.6890   0.6891   0.6891   0.6891   0.6903   0.6892

  WITH FROZEN REACTIONS

 Cp, KJ/(KG)(K)   14.5311  14.5330  14.5350  14.5370  14.5391  14.5413  14.5174  14.5186
 CONDUCTIVITY      2.9268   2.9448   2.9627   2.9806   2.9984   3.0163   2.7553   2.7800
 PRANDTL NUMBER    0.6890   0.6890   0.6890   0.6891   0.6891   0.6891   0.6903   0.6892

 MASS FRACTIONS

 *H2              1.00000  1.00000  1.00000  1.00000  1.00000  1.00000  1.00000  1.00000

  * THERMODYNAMIC PROPERTIES FITTED TO 20000.K

 NOTE. WEIGHT FRACTION OF FUEL IN TOTAL FUELS AND OF OXIDANT IN TOTAL OXIDANTS









               THERMODYNAMIC EQUILIBRIUM PROPERTIES AT ASSIGNED

                           TEMPERATURE AND PRESSURE

 CASE =                

             REACTANT                    WT FRACTION      ENERGY      TEMP
                                          (SEE NOTE)     KJ/KG-MOL      K  
 FUEL        H2                           1.0000000         0.000      0.000
 OXIDANT     H2                           1.0000000         0.000      0.000

 O/F=    1.00000  %FUEL= 50.000000  R,EQ.RATIO= 0.000000  PHI,EQ.RATIO=-1.000000

 THERMODYNAMIC PROPERTIES

 P, BAR           0.02800  0.02800  0.02800  0.02800  0.02800  0.02800  0.02800  0.02800
 T, K              535.00   540.00   545.00   550.00   555.00   560.00   565.00   570.00
 RHO, KG/CU M    1.2689-3 1.2572-3 1.2456-3 1.2343-3 1.2232-3 1.2123-3 1.2015-3 1.1910-3
 H, KJ/KG         3426.15  3498.75  3571.36  3643.98  3716.60  3789.24  3861.88  3934.53
 U, KJ/KG         1219.55  1271.53  1323.52  1375.52  1427.52  1479.53  1531.55  1583.58
 G, KJ/KG        -43667.5 -44108.0 -44549.1 -44990.9 -45433.4 -45876.5 -46320.2 -46764.6
 S, KJ/(KG)(K)    88.0255  88.1606  88.2944  88.4270  88.5585  88.6888  88.8179  88.9459

 M, (1/n)           2.016    2.016    2.016    2.016    2.016    2.016    2.016    2.016
 (dLV/dLP)t      -0.99999 -0.99999 -0.99999 -0.99999 -0.99999 -0.99999 -0.99999 -0.99999
 (dLV/dLT)p        1.0000   1.0000   1.0000   1.0000   1.0000   1.0000   1.0000   1.0000
 Cp, KJ/(KG)(K)   14.5200  14.5214  14.5228  14.5243  14.5259  14.5276  14.5293  14.5311
 GAMMAs            1.3968   1.3967   1.3967   1.3966   1.3965   1.3965   1.3964   1.3963
 SON VEL,M/SEC     1755.6   1763.7   1771.9   1779.9   1788.0   1796.0   1803.9   1811.8

 TRANSPORT PROPERTIES (GASES ONLY)
   CONDUCTIVITY IN UNITS OF MILLIWATTS/(CM)(K)

 VISC,MILLIPOISE  0.13284  0.13370  0.13455  0.13540  0.13624  0.13709  0.13793  0.13877

  WITH EQUILIBRIUM REACTIONS

 Cp, KJ/(KG)(K)   14.5200  14.5214  14.5228  14.5243  14.5259  14.5276  14.5293  14.5311
 CONDUCTIVITY      2.7999   2.8185   2.8368   2.8549   2.8729   2.8909   2.9089   2.9268
 PRANDTL NUMBER    0.6889   0.6888   0.6888   0.6889   0.6889   0.6889   0.6889   0.6890

  WITH FROZEN REACTIONS

 Cp, KJ/(KG)(K)   14.5200  14.5214  14.5228  14.5243  14.5259  14.5276  14.5293  14.5311
 CONDUCTIVITY      2.7999   2.8185   2.8368   2.8549   2.8729   2.8909   2.9089   2.9268
 PRANDTL NUMBER    0.6889   0.6888   0.6888   0.6889   0.6889   0.6889   0.6889   0.6890

 MASS FRACTIONS

 *H2              1.00000  1.00000  1.00000  1.00000  1.00000  1.00000  1.00000  1.00000

  * THERMODYNAMIC PROPERTIES FITTED TO 20000.K

 NOTE. WEIGHT FRACTION OF FUEL IN TOTAL FUELS AND OF OXIDANT IN TOTAL OXIDANTS









               THERMODYNAMIC EQUILIBRIUM PROPERTIES AT ASSIGNED

                           TEMPERATURE AND PRESSURE

 CASE =                

             REACTANT                    WT FRACTION      ENERGY      TEMP
                                          (SEE NOTE)     KJ/KG-MOL      K  
 FUEL        H2                           1.0000000         0.000      0.000
 OXIDANT     H2                           1.0000000         0.000      0.000

 O/F=    1.00000  %FUEL= 50.000000  R,EQ.RATIO= 0.000000  PHI,EQ.RATIO=-1.000000

 THERMODYNAMIC PROPERTIES

 P, BAR           0.02800  0.02800  0.02800  0.02800  0.02800  0.03100  0.03100  0.03100
 T, K              575.00   580.00   585.00   590.00   595.00   525.00   530.00   535.00
 RHO, KG/CU M    1.1807-3 1.1705-3 1.1605-3 1.1506-3 1.1410-3 1.4316-3 1.4181-3 1.4049-3
 H, KJ/KG         4007.19  4079.86  4152.54  4225.23  4297.93  3280.96  3353.55  3426.15
 U, KJ/KG         1635.62  1687.67  1739.72  1791.79  1843.87  1115.61  1167.58  1219.55
 G, KJ/KG        -47209.7 -47655.4 -48101.7 -48548.6 -48996.2 -42568.3 -43005.2 -43442.9
 S, KJ/(KG)(K)    89.0728  89.1987  89.3235  89.4472  89.5699  87.3319  87.4694  87.6057

 M, (1/n)           2.016    2.016    2.016    2.016    2.016    2.016    2.016    2.016
 (dLV/dLP)t      -0.99999 -0.99999 -0.99999 -0.99999 -0.99999 -0.99999 -0.99999 -0.99999
 (dLV/dLT)p        1.0000   1.0000   1.0000   1.0000   1.0000   1.0000   1.0000   1.0000
 Cp, KJ/(KG)(K)   14.5330  14.5350  14.5370  14.5391  14.5413  14.5174  14.5186  14.5200
 GAMMAs            1.3963   1.3962   1.3961   1.3960   1.3960   1.3969   1.3968   1.3968
 SON VEL,M/SEC     1819.7   1827.6   1835.4   1843.1   1850.9   1739.2   1747.4   1755.6

 TRANSPORT PROPERTIES (GASES ONLY)
   CONDUCTIVITY IN UNITS OF MILLIWATTS/(CM)(K)

 VISC,MILLIPOISE  0.13961  0.14044  0.14128  0.14211  0.14294  0.13101  0.13196  0.13284

  WITH EQUILIBRIUM REACTIONS

 Cp, KJ/(KG)(K)   14.5330  14.5350  14.5370  14.5391  14.5413  14.5174  14.5186  14.5200
 CONDUCTIVITY      2.9448   2.9627   2.9806   2.9984   3.0163   2.7553   2.7800   2.7999
 PRANDTL NUMBER    0.6890   0.6890   0.6891   0.6891   0.6891   0.6903   0.6892   0.6889

  WITH FROZEN REACTIONS

 Cp, KJ/(KG)(K)   14.5330  14.5350  14.5370  14.5391  14.5413  14.5174  14.5186  14.5200
 CONDUCTIVITY      2.9448   2.9627   2.9806   2.9984   3.0163   2.7553   2.7800   2.7999
 PRANDTL NUMBER    0.6890   0.6890   0.6891   0.6891   0.6891   0.6903   0.6892   0.6889

 MASS FRACTIONS

 *H2              1.00000  1.00000  1.00000  1.00000  1.00000  1.00000  1.00000  1.00000

  * THERMODYNAMIC PROPERTIES FITTED TO 20000.K

 NOTE. WEIGHT FRACTION OF FUEL IN TOTAL FUELS AND OF OXIDANT IN TOTAL OXIDANTS









               THERMODYNAMIC EQUILIBRIUM PROPERTIES AT ASSIGNED

                           TEMPERATURE AND PRESSURE

 CASE =                

             REACTANT                    WT FRACTION      ENERGY      TEMP
                                          (SEE NOTE)     KJ/KG-MOL      K  
 FUEL        H2                           1.0000000         0.000      0.000
 OXIDANT     H2                           1.0000000         0.000      0.000

 O/F=    1.00000  %FUEL= 50.000000  R,EQ.RATIO= 0.000000  PHI,EQ.RATIO=-1.000000

 THERMODYNAMIC PROPERTIES

 P, BAR           0.03100  0.03100  0.03100  0.03100  0.03100  0.03100  0.03100  0.03100
 T, K              540.00   545.00   550.00   555.00   560.00   565.00   570.00   575.00
 RHO, KG/CU M    1.3919-3 1.3791-3 1.3666-3 1.3543-3 1.3422-3 1.3303-3 1.3186-3 1.3071-3
 H, KJ/KG         3498.75  3571.36  3643.98  3716.60  3789.24  3861.88  3934.53  4007.19
 U, KJ/KG         1271.53  1323.52  1375.52  1427.52  1479.53  1531.55  1583.58  1635.62
 G, KJ/KG        -43881.3 -44320.3 -44760.0 -45200.4 -45641.4 -46083.0 -46525.4 -46968.3
 S, KJ/(KG)(K)    87.7408  87.8746  88.0072  88.1387  88.2690  88.3981  88.5261  88.6530

 M, (1/n)           2.016    2.016    2.016    2.016    2.016    2.016    2.016    2.016
 (dLV/dLP)t      -0.99999 -0.99999 -0.99999 -0.99999 -0.99999 -0.99999 -0.99999 -0.99999
 (dLV/dLT)p        1.0000   1.0000   1.0000   1.0000   1.0000   1.0000   1.0000   1.0000
 Cp, KJ/(KG)(K)   14.5214  14.5228  14.5243  14.5259  14.5276  14.5293  14.5311  14.5330
 GAMMAs            1.3967   1.3967   1.3966   1.3965   1.3965   1.3964   1.3963   1.3963
 SON VEL,M/SEC     1763.7   1771.9   1779.9   1788.0   1796.0   1803.9   1811.8   1819.7

 TRANSPORT PROPERTIES (GASES ONLY)
   CONDUCTIVITY IN UNITS OF MILLIWATTS/(CM)(K)

 VISC,MILLIPOISE  0.13370  0.13455  0.13540  0.13624  0.13709  0.13793  0.13877  0.13961

  WITH EQUILIBRIUM REACTIONS

 Cp, KJ/(KG)(K)   14.5214  14.5228  14.5243  14.5259  14.5276  14.5293  14.5311  14.5330
 CONDUCTIVITY      2.8185   2.8368   2.8549   2.8729   2.8909   2.9089   2.9268   2.9448
 PRANDTL NUMBER    0.6888   0.6888   0.6889   0.6889   0.6889   0.6889   0.6890   0.6890

  WITH FROZEN REACTIONS

 Cp, KJ/(KG)(K)   14.5214  14.5228  14.5243  14.5259  14.5276  14.5293  14.5311  14.5330
 CONDUCTIVITY      2.8185   2.8368   2.8549   2.8729   2.8909   2.9089   2.9268   2.9448
 PRANDTL NUMBER    0.6888   0.6888   0.6889   0.6889   0.6889   0.6889   0.6890   0.6890

 MASS FRACTIONS

 *H2              1.00000  1.00000  1.00000  1.00000  1.00000  1.00000  1.00000  1.00000

  * THERMODYNAMIC PROPERTIES FITTED TO 20000.K

 NOTE. WEIGHT FRACTION OF FUEL IN TOTAL FUELS AND OF OXIDANT IN TOTAL OXIDANTS









               THERMODYNAMIC EQUILIBRIUM PROPERTIES AT ASSIGNED

                           TEMPERATURE AND PRESSURE

 CASE =                

             REACTANT                    WT FRACTION      ENERGY      TEMP
                                          (SEE NOTE)     KJ/KG-MOL      K  
 FUEL        H2                           1.0000000         0.000      0.000
 OXIDANT     H2                           1.0000000         0.000      0.000

 O/F=    1.00000  %FUEL= 50.000000  R,EQ.RATIO= 0.000000  PHI,EQ.RATIO=-1.000000

 THERMODYNAMIC PROPERTIES

 P, BAR           0.03100  0.03100  0.03100  0.03100  0.03500  0.03500  0.03500  0.03500
 T, K              580.00   585.00   590.00   595.00   525.00   530.00   535.00   540.00
 RHO, KG/CU M    1.2959-3 1.2848-3 1.2739-3 1.2632-3 1.6164-3 1.6011-3 1.5862-3 1.5715-3
 H, KJ/KG         4079.86  4152.54  4225.23  4297.93  3280.96  3353.55  3426.15  3498.75
 U, KJ/KG         1687.67  1739.72  1791.79  1843.87  1115.61  1167.58  1219.55  1271.53
 G, KJ/KG        -47411.9 -47856.1 -48300.9 -48746.4 -42305.5 -42739.9 -43175.1 -43611.0
 S, KJ/(KG)(K)    88.7789  88.9037  89.0274  89.1501  86.8313  86.9688  87.1051  87.2402

 M, (1/n)           2.016    2.016    2.016    2.016    2.016    2.016    2.016    2.016
 (dLV/dLP)t      -0.99999 -0.99999 -0.99999 -0.99999 -0.99999 -0.99999 -0.99999 -0.99999
 (dLV/dLT)p        1.0000   1.0000   1.0000   1.0000   1.0000   1.0000   1.0000   1.0000
 Cp, KJ/(KG)(K)   14.5350  14.5370  14.5391  14.5413  14.5174  14.5186  14.5200  14.5214
 GAMMAs            1.3962   1.3961   1.3960   1.3960   1.3969   1.3968   1.3968   1.3967
 SON VEL,M/SEC     1827.6   1835.4   1843.1   1850.9   1739.2   1747.4   1755.6   1763.7

 TRANSPORT PROPERTIES (GASES ONLY)
   CONDUCTIVITY IN UNITS OF MILLIWATTS/(CM)(K)

 VISC,MILLIPOISE  0.14044  0.14128  0.14211  0.14294  0.13101  0.13196  0.13284  0.13370

  WITH EQUILIBRIUM REACTIONS

 Cp, KJ/(KG)(K)   14.5350  14.5370  14.5391  14.5413  14.5174  14.5186  14.5200  14.5214
 CONDUCTIVITY      2.9627   2.9806   2.9984   3.0163   2.7553   2.7800   2.7999   2.8185
 PRANDTL NUMBER    0.6890   0.6891   0.6891   0.6891   0.6903   0.6892   0.6889   0.6888

  WITH FROZEN REACTIONS

 Cp, KJ/(KG)(K)   14.5350  14.5370  14.5391  14.5413  14.5174  14.5186  14.5200  14.5214
 CONDUCTIVITY      2.9627   2.9806   2.9984   3.0163   2.7553   2.7800   2.7999   2.8185
 PRANDTL NUMBER    0.6890   0.6891   0.6891   0.6891   0.6903   0.6892   0.6889   0.6888

 MASS FRACTIONS

 *H2              1.00000  1.00000  1.00000  1.00000  1.00000  1.00000  1.00000  1.00000

  * THERMODYNAMIC PROPERTIES FITTED TO 20000.K

 NOTE. WEIGHT FRACTION OF FUEL IN TOTAL FUELS AND OF OXIDANT IN TOTAL OXIDANTS









               THERMODYNAMIC EQUILIBRIUM PROPERTIES AT ASSIGNED

                           TEMPERATURE AND PRESSURE

 CASE =                

             REACTANT                    WT FRACTION      ENERGY      TEMP
                                          (SEE NOTE)     KJ/KG-MOL      K  
 FUEL        H2                           1.0000000         0.000      0.000
 OXIDANT     H2                           1.0000000         0.000      0.000

 O/F=    1.00000  %FUEL= 50.000000  R,EQ.RATIO= 0.000000  PHI,EQ.RATIO=-1.000000

 THERMODYNAMIC PROPERTIES

 P, BAR           0.03500  0.03500  0.03500  0.03500  0.03500  0.03500  0.03500  0.03500
 T, K              545.00   550.00   555.00   560.00   565.00   570.00   575.00   580.00
 RHO, KG/CU M    1.5570-3 1.5429-3 1.5290-3 1.5153-3 1.5019-3 1.4888-3 1.4758-3 1.4631-3
 H, KJ/KG         3571.36  3643.98  3716.60  3789.24  3861.88  3934.53  4007.19  4079.86
 U, KJ/KG         1323.52  1375.52  1427.52  1479.53  1531.55  1583.58  1635.62  1687.67
 G, KJ/KG        -44047.5 -44484.7 -44922.6 -45361.1 -45800.2 -46240.0 -46680.5 -47121.6
 S, KJ/(KG)(K)    87.3740  87.5067  87.6381  87.7684  87.8976  88.0256  88.1525  88.2783

 M, (1/n)           2.016    2.016    2.016    2.016    2.016    2.016    2.016    2.016
 (dLV/dLP)t      -0.99999 -0.99999 -0.99999 -0.99999 -0.99999 -0.99999 -0.99999 -0.99999
 (dLV/dLT)p        1.0000   1.0000   1.0000   1.0000   1.0000   1.0000   1.0000   1.0000
 Cp, KJ/(KG)(K)   14.5228  14.5243  14.5259  14.5276  14.5293  14.5311  14.5330  14.5350
 GAMMAs            1.3967   1.3966   1.3965   1.3965   1.3964   1.3963   1.3963   1.3962
 SON VEL,M/SEC     1771.9   1779.9   1788.0   1796.0   1803.9   1811.8   1819.7   1827.6

 TRANSPORT PROPERTIES (GASES ONLY)
   CONDUCTIVITY IN UNITS OF MILLIWATTS/(CM)(K)

 VISC,MILLIPOISE  0.13455  0.13540  0.13624  0.13709  0.13793  0.13877  0.13961  0.14044

  WITH EQUILIBRIUM REACTIONS

 Cp, KJ/(KG)(K)   14.5228  14.5243  14.5259  14.5276  14.5293  14.5311  14.5330  14.5350
 CONDUCTIVITY      2.8368   2.8549   2.8729   2.8909   2.9089   2.9268   2.9448   2.9627
 PRANDTL NUMBER    0.6888   0.6889   0.6889   0.6889   0.6889   0.6890   0.6890   0.6890

  WITH FROZEN REACTIONS

 Cp, KJ/(KG)(K)   14.5228  14.5243  14.5259  14.5276  14.5293  14.5311  14.5330  14.5350
 CONDUCTIVITY      2.8368   2.8549   2.8729   2.8909   2.9089   2.9268   2.9448   2.9627
 PRANDTL NUMBER    0.6888   0.6889   0.6889   0.6889   0.6889   0.6890   0.6890   0.6890

 MASS FRACTIONS

 *H2              1.00000  1.00000  1.00000  1.00000  1.00000  1.00000  1.00000  1.00000

  * THERMODYNAMIC PROPERTIES FITTED TO 20000.K

 NOTE. WEIGHT FRACTION OF FUEL IN TOTAL FUELS AND OF OXIDANT IN TOTAL OXIDANTS









               THERMODYNAMIC EQUILIBRIUM PROPERTIES AT ASSIGNED

                           TEMPERATURE AND PRESSURE

 CASE =                

             REACTANT                    WT FRACTION      ENERGY      TEMP
                                          (SEE NOTE)     KJ/KG-MOL      K  
 FUEL        H2                           1.0000000         0.000      0.000
 OXIDANT     H2                           1.0000000         0.000      0.000

 O/F=    1.00000  %FUEL= 50.000000  R,EQ.RATIO= 0.000000  PHI,EQ.RATIO=-1.000000

 THERMODYNAMIC PROPERTIES

 P, BAR           0.03500  0.03500  0.03500  0.03900  0.03900  0.03900  0.03900  0.03900
 T, K              585.00   590.00   595.00   525.00   530.00   535.00   540.00   545.00
 RHO, KG/CU M    1.4506-3 1.4383-3 1.4262-3 1.8011-3 1.7841-3 1.7674-3 1.7511-3 1.7350-3
 H, KJ/KG         4152.54  4225.23  4297.93  3280.96  3353.55  3426.15  3498.75  3571.36
 U, KJ/KG         1739.72  1791.79  1843.87  1115.61  1167.58  1219.55  1271.53  1323.52
 G, KJ/KG        -47563.3 -48005.6 -48448.5 -42071.2 -42503.4 -42936.3 -43369.9 -43804.2
 S, KJ/(KG)(K)    88.4031  88.5268  88.6495  86.3850  86.5225  86.6588  86.7939  86.9277

 M, (1/n)           2.016    2.016    2.016    2.016    2.016    2.016    2.016    2.016
 (dLV/dLP)t      -0.99999 -0.99999 -0.99999 -0.99999 -0.99999 -0.99999 -0.99999 -0.99999
 (dLV/dLT)p        1.0000   1.0000   1.0000   1.0000   1.0000   1.0000   1.0000   1.0000
 Cp, KJ/(KG)(K)   14.5370  14.5391  14.5413  14.5174  14.5186  14.5200  14.5214  14.5228
 GAMMAs            1.3961   1.3960   1.3960   1.3969   1.3968   1.3968   1.3967   1.3967
 SON VEL,M/SEC     1835.4   1843.1   1850.9   1739.2   1747.4   1755.6   1763.7   1771.9

 TRANSPORT PROPERTIES (GASES ONLY)
   CONDUCTIVITY IN UNITS OF MILLIWATTS/(CM)(K)

 VISC,MILLIPOISE  0.14128  0.14211  0.14294  0.13101  0.13196  0.13284  0.13370  0.13455

  WITH EQUILIBRIUM REACTIONS

 Cp, KJ/(KG)(K)   14.5370  14.5391  14.5413  14.5174  14.5186  14.5200  14.5214  14.5228
 CONDUCTIVITY      2.9806   2.9984   3.0163   2.7553   2.7800   2.7999   2.8185   2.8368
 PRANDTL NUMBER    0.6891   0.6891   0.6891   0.6903   0.6892   0.6889   0.6888   0.6888

  WITH FROZEN REACTIONS

 Cp, KJ/(KG)(K)   14.5370  14.5391  14.5413  14.5174  14.5186  14.5200  14.5214  14.5228
 CONDUCTIVITY      2.9806   2.9984   3.0163   2.7553   2.7800   2.7999   2.8185   2.8368
 PRANDTL NUMBER    0.6891   0.6891   0.6891   0.6903   0.6892   0.6889   0.6888   0.6888

 MASS FRACTIONS

 *H2              1.00000  1.00000  1.00000  1.00000  1.00000  1.00000  1.00000  1.00000

  * THERMODYNAMIC PROPERTIES FITTED TO 20000.K

 NOTE. WEIGHT FRACTION OF FUEL IN TOTAL FUELS AND OF OXIDANT IN TOTAL OXIDANTS









               THERMODYNAMIC EQUILIBRIUM PROPERTIES AT ASSIGNED

                           TEMPERATURE AND PRESSURE

 CASE =                

             REACTANT                    WT FRACTION      ENERGY      TEMP
                                          (SEE NOTE)     KJ/KG-MOL      K  
 FUEL        H2                           1.0000000         0.000      0.000
 OXIDANT     H2                           1.0000000         0.000      0.000

 O/F=    1.00000  %FUEL= 50.000000  R,EQ.RATIO= 0.000000  PHI,EQ.RATIO=-1.000000

 THERMODYNAMIC PROPERTIES

 P, BAR           0.03900  0.03900  0.03900  0.03900  0.03900  0.03900  0.03900  0.03900
 T, K              550.00   555.00   560.00   565.00   570.00   575.00   580.00   585.00
 RHO, KG/CU M    1.7192-3 1.7037-3 1.6885-3 1.6736-3 1.6589-3 1.6445-3 1.6303-3 1.6164-3
 H, KJ/KG         3643.98  3716.60  3789.24  3861.88  3934.53  4007.19  4079.86  4152.54
 U, KJ/KG         1375.52  1427.52  1479.53  1531.55  1583.58  1635.62  1687.67  1739.72
 G, KJ/KG        -44239.2 -44674.8 -45111.1 -45548.1 -45985.6 -46423.9 -46862.7 -47302.2
 S, KJ/(KG)(K)    87.0603  87.1918  87.3221  87.4512  87.5792  87.7062  87.8320  87.9568

 M, (1/n)           2.016    2.016    2.016    2.016    2.016    2.016    2.016    2.016
 (dLV/dLP)t      -0.99999 -0.99999 -0.99999 -0.99999 -0.99999 -0.99999 -0.99999 -0.99999
 (dLV/dLT)p        1.0000   1.0000   1.0000   1.0000   1.0000   1.0000   1.0000   1.0000
 Cp, KJ/(KG)(K)   14.5243  14.5259  14.5276  14.5293  14.5311  14.5330  14.5350  14.5370
 GAMMAs            1.3966   1.3965   1.3965   1.3964   1.3963   1.3963   1.3962   1.3961
 SON VEL,M/SEC     1779.9   1788.0   1796.0   1803.9   1811.8   1819.7   1827.6   1835.4

 TRANSPORT PROPERTIES (GASES ONLY)
   CONDUCTIVITY IN UNITS OF MILLIWATTS/(CM)(K)

 VISC,MILLIPOISE  0.13540  0.13624  0.13709  0.13793  0.13877  0.13961  0.14044  0.14128

  WITH EQUILIBRIUM REACTIONS

 Cp, KJ/(KG)(K)   14.5243  14.5259  14.5276  14.5293  14.5311  14.5330  14.5350  14.5370
 CONDUCTIVITY      2.8549   2.8729   2.8909   2.9089   2.9268   2.9448   2.9627   2.9806
 PRANDTL NUMBER    0.6889   0.6889   0.6889   0.6889   0.6890   0.6890   0.6890   0.6891

  WITH FROZEN REACTIONS

 Cp, KJ/(KG)(K)   14.5243  14.5259  14.5276  14.5293  14.5311  14.5330  14.5350  14.5370
 CONDUCTIVITY      2.8549   2.8729   2.8909   2.9089   2.9268   2.9448   2.9627   2.9806
 PRANDTL NUMBER    0.6889   0.6889   0.6889   0.6889   0.6890   0.6890   0.6890   0.6891

 MASS FRACTIONS

 *H2              1.00000  1.00000  1.00000  1.00000  1.00000  1.00000  1.00000  1.00000

  * THERMODYNAMIC PROPERTIES FITTED TO 20000.K

 NOTE. WEIGHT FRACTION OF FUEL IN TOTAL FUELS AND OF OXIDANT IN TOTAL OXIDANTS









               THERMODYNAMIC EQUILIBRIUM PROPERTIES AT ASSIGNED

                           TEMPERATURE AND PRESSURE

 CASE =                

             REACTANT                    WT FRACTION      ENERGY      TEMP
                                          (SEE NOTE)     KJ/KG-MOL      K  
 FUEL        H2                           1.0000000         0.000      0.000
 OXIDANT     H2                           1.0000000         0.000      0.000

 O/F=    1.00000  %FUEL= 50.000000  R,EQ.RATIO= 0.000000  PHI,EQ.RATIO=-1.000000

 THERMODYNAMIC PROPERTIES

 P, BAR           0.03900  0.03900  0.04400  0.04400  0.04400  0.04400  0.04400  0.04400
 T, K              590.00   595.00   525.00   530.00   535.00   540.00   545.00   550.00
 RHO, KG/CU M    1.6027-3 1.5892-3 2.0320-3 2.0128-3 1.9940-3 1.9756-3 1.9574-3 1.9396-3
 H, KJ/KG         4225.23  4297.93  3280.96  3353.55  3426.15  3498.75  3571.36  3643.98
 U, KJ/KG         1791.79  1843.87  1115.61  1167.58  1219.55  1271.53  1323.52  1375.52
 G, KJ/KG        -47742.3 -48183.0 -41810.0 -42239.7 -42670.1 -43101.3 -43533.1 -43965.6
 S, KJ/(KG)(K)    88.0805  88.2032  85.8875  86.0250  86.1613  86.2963  86.4302  86.5628

 M, (1/n)           2.016    2.016    2.016    2.016    2.016    2.016    2.016    2.016
 (dLV/dLP)t      -0.99999 -0.99999 -0.99999 -0.99999 -0.99999 -0.99999 -0.99999 -0.99999
 (dLV/dLT)p        1.0000   1.0000   1.0000   1.0000   1.0000   1.0000   1.0000   1.0000
 Cp, KJ/(KG)(K)   14.5391  14.5413  14.5174  14.5186  14.5200  14.5214  14.5228  14.5243
 GAMMAs            1.3960   1.3960   1.3969   1.3968   1.3968   1.3967   1.3967   1.3966
 SON VEL,M/SEC     1843.1   1850.9   1739.2   1747.4   1755.6   1763.7   1771.9   1779.9

 TRANSPORT PROPERTIES (GASES ONLY)
   CONDUCTIVITY IN UNITS OF MILLIWATTS/(CM)(K)

 VISC,MILLIPOISE  0.14211  0.14294  0.13101  0.13196  0.13284  0.13370  0.13455  0.13540

  WITH EQUILIBRIUM REACTIONS

 Cp, KJ/(KG)(K)   14.5391  14.5413  14.5174  14.5186  14.5200  14.5214  14.5228  14.5243
 CONDUCTIVITY      2.9984   3.0163   2.7553   2.7800   2.7999   2.8185   2.8368   2.8549
 PRANDTL NUMBER    0.6891   0.6891   0.6903   0.6892   0.6889   0.6888   0.6888   0.6889

  WITH FROZEN REACTIONS

 Cp, KJ/(KG)(K)   14.5391  14.5413  14.5174  14.5186  14.5200  14.5214  14.5228  14.5243
 CONDUCTIVITY      2.9984   3.0163   2.7553   2.7800   2.7999   2.8185   2.8368   2.8549
 PRANDTL NUMBER    0.6891   0.6891   0.6903   0.6892   0.6889   0.6888   0.6888   0.6889

 MASS FRACTIONS

 *H2              1.00000  1.00000  1.00000  1.00000  1.00000  1.00000  1.00000  1.00000

  * THERMODYNAMIC PROPERTIES FITTED TO 20000.K

 NOTE. WEIGHT FRACTION OF FUEL IN TOTAL FUELS AND OF OXIDANT IN TOTAL OXIDANTS









               THERMODYNAMIC EQUILIBRIUM PROPERTIES AT ASSIGNED

                           TEMPERATURE AND PRESSURE

 CASE =                

             REACTANT                    WT FRACTION      ENERGY      TEMP
                                          (SEE NOTE)     KJ/KG-MOL      K  
 FUEL        H2                           1.0000000         0.000      0.000
 OXIDANT     H2                           1.0000000         0.000      0.000

 O/F=    1.00000  %FUEL= 50.000000  R,EQ.RATIO= 0.000000  PHI,EQ.RATIO=-1.000000

 THERMODYNAMIC PROPERTIES

 P, BAR           0.04400  0.04400  0.04400  0.04400  0.04400  0.04400  0.04400  0.04400
 T, K              555.00   560.00   565.00   570.00   575.00   580.00   585.00   590.00
 RHO, KG/CU M    1.9222-3 1.9050-3 1.8881-3 1.8716-3 1.8553-3 1.8393-3 1.8236-3 1.8081-3
 H, KJ/KG         3716.60  3789.24  3861.88  3934.53  4007.19  4079.86  4152.54  4225.23
 U, KJ/KG         1427.52  1479.53  1531.55  1583.58  1635.62  1687.67  1739.72  1791.79
 G, KJ/KG        -44398.7 -44832.5 -45267.0 -45702.0 -46137.8 -46574.1 -47011.1 -47448.7
 S, KJ/(KG)(K)    86.6943  86.8246  86.9537  87.0817  87.2086  87.3345  87.4592  87.5830

 M, (1/n)           2.016    2.016    2.016    2.016    2.016    2.016    2.016    2.016
 (dLV/dLP)t      -0.99999 -0.99999 -0.99999 -0.99999 -0.99999 -0.99999 -0.99999 -0.99999
 (dLV/dLT)p        1.0000   1.0000   1.0000   1.0000   1.0000   1.0000   1.0000   1.0000
 Cp, KJ/(KG)(K)   14.5259  14.5276  14.5293  14.5311  14.5330  14.5350  14.5370  14.5391
 GAMMAs            1.3965   1.3965   1.3964   1.3963   1.3963   1.3962   1.3961   1.3960
 SON VEL,M/SEC     1788.0   1796.0   1803.9   1811.8   1819.7   1827.6   1835.4   1843.1

 TRANSPORT PROPERTIES (GASES ONLY)
   CONDUCTIVITY IN UNITS OF MILLIWATTS/(CM)(K)

 VISC,MILLIPOISE  0.13624  0.13709  0.13793  0.13877  0.13961  0.14044  0.14128  0.14211

  WITH EQUILIBRIUM REACTIONS

 Cp, KJ/(KG)(K)   14.5259  14.5276  14.5293  14.5311  14.5330  14.5350  14.5370  14.5391
 CONDUCTIVITY      2.8729   2.8909   2.9089   2.9268   2.9448   2.9627   2.9806   2.9984
 PRANDTL NUMBER    0.6889   0.6889   0.6889   0.6890   0.6890   0.6890   0.6891   0.6891

  WITH FROZEN REACTIONS

 Cp, KJ/(KG)(K)   14.5259  14.5276  14.5293  14.5311  14.5330  14.5350  14.5370  14.5391
 CONDUCTIVITY      2.8729   2.8909   2.9089   2.9268   2.9448   2.9627   2.9806   2.9984
 PRANDTL NUMBER    0.6889   0.6889   0.6889   0.6890   0.6890   0.6890   0.6891   0.6891

 MASS FRACTIONS

 *H2              1.00000  1.00000  1.00000  1.00000  1.00000  1.00000  1.00000  1.00000

  * THERMODYNAMIC PROPERTIES FITTED TO 20000.K

 NOTE. WEIGHT FRACTION OF FUEL IN TOTAL FUELS AND OF OXIDANT IN TOTAL OXIDANTS









               THERMODYNAMIC EQUILIBRIUM PROPERTIES AT ASSIGNED

                           TEMPERATURE AND PRESSURE

 CASE =                

             REACTANT                    WT FRACTION      ENERGY      TEMP
                                          (SEE NOTE)     KJ/KG-MOL      K  
 FUEL        H2                           1.0000000         0.000      0.000
 OXIDANT     H2                           1.0000000         0.000      0.000

 O/F=    1.00000  %FUEL= 50.000000  R,EQ.RATIO= 0.000000  PHI,EQ.RATIO=-1.000000

 THERMODYNAMIC PROPERTIES

 P, BAR           0.04400  0.04900  0.04900  0.04900  0.04900  0.04900  0.04900  0.04900
 T, K              595.00   525.00   530.00   535.00   540.00   545.00   550.00   555.00
 RHO, KG/CU M    1.7929-3 2.2629-3 2.2416-3 2.2206-3 2.2001-3 2.1799-3 2.1601-3 2.1406-3
 H, KJ/KG         4297.93  3280.96  3353.55  3426.15  3498.75  3571.36  3643.98  3716.60
 U, KJ/KG         1843.87  1115.61  1167.58  1219.55  1271.53  1323.52  1375.52  1427.52
 G, KJ/KG        -47886.9 -41576.9 -42004.4 -42432.6 -42861.6 -43291.1 -43721.4 -44152.3
 S, KJ/(KG)(K)    87.7057  85.4435  85.5811  85.7174  85.8524  85.9863  86.1189  86.2503

 M, (1/n)           2.016    2.016    2.016    2.016    2.016    2.016    2.016    2.016
 (dLV/dLP)t      -0.99999 -0.99999 -0.99999 -0.99999 -0.99999 -0.99999 -0.99999 -0.99999
 (dLV/dLT)p        1.0000   1.0000   1.0000   1.0000   1.0000   1.0000   1.0000   1.0000
 Cp, KJ/(KG)(K)   14.5413  14.5174  14.5186  14.5200  14.5214  14.5228  14.5243  14.5259
 GAMMAs            1.3960   1.3969   1.3968   1.3968   1.3967   1.3967   1.3966   1.3965
 SON VEL,M/SEC     1850.9   1739.2   1747.4   1755.6   1763.7   1771.9   1779.9   1788.0

 TRANSPORT PROPERTIES (GASES ONLY)
   CONDUCTIVITY IN UNITS OF MILLIWATTS/(CM)(K)

 VISC,MILLIPOISE  0.14294  0.13101  0.13196  0.13284  0.13370  0.13455  0.13540  0.13624

  WITH EQUILIBRIUM REACTIONS

 Cp, KJ/(KG)(K)   14.5413  14.5174  14.5186  14.5200  14.5214  14.5228  14.5243  14.5259
 CONDUCTIVITY      3.0163   2.7553   2.7800   2.7999   2.8185   2.8368   2.8549   2.8729
 PRANDTL NUMBER    0.6891   0.6903   0.6892   0.6889   0.6888   0.6888   0.6889   0.6889

  WITH FROZEN REACTIONS

 Cp, KJ/(KG)(K)   14.5413  14.5174  14.5186  14.5200  14.5214  14.5228  14.5243  14.5259
 CONDUCTIVITY      3.0163   2.7553   2.7800   2.7999   2.8185   2.8368   2.8549   2.8729
 PRANDTL NUMBER    0.6891   0.6903   0.6892   0.6889   0.6888   0.6888   0.6889   0.6889

 MASS FRACTIONS

 *H2              1.00000  1.00000  1.00000  1.00000  1.00000  1.00000  1.00000  1.00000

  * THERMODYNAMIC PROPERTIES FITTED TO 20000.K

 NOTE. WEIGHT FRACTION OF FUEL IN TOTAL FUELS AND OF OXIDANT IN TOTAL OXIDANTS









               THERMODYNAMIC EQUILIBRIUM PROPERTIES AT ASSIGNED

                           TEMPERATURE AND PRESSURE

 CASE =                

             REACTANT                    WT FRACTION      ENERGY      TEMP
                                          (SEE NOTE)     KJ/KG-MOL      K  
 FUEL        H2                           1.0000000         0.000      0.000
 OXIDANT     H2                           1.0000000         0.000      0.000

 O/F=    1.00000  %FUEL= 50.000000  R,EQ.RATIO= 0.000000  PHI,EQ.RATIO=-1.000000

 THERMODYNAMIC PROPERTIES

 P, BAR           0.04900  0.04900  0.04900  0.04900  0.04900  0.04900  0.04900  0.04900
 T, K              560.00   565.00   570.00   575.00   580.00   585.00   590.00   595.00
 RHO, KG/CU M    2.1215-3 2.1027-3 2.0843-3 2.0661-3 2.0483-3 2.0308-3 2.0136-3 1.9967-3
 H, KJ/KG         3789.24  3861.88  3934.53  4007.19  4079.86  4152.54  4225.23  4297.93
 U, KJ/KG         1479.53  1531.55  1583.58  1635.62  1687.67  1739.72  1791.79  1843.87
 G, KJ/KG        -44583.9 -45016.1 -45449.0 -45882.5 -46316.7 -46751.4 -47186.8 -47622.8
 S, KJ/(KG)(K)    86.3806  86.5098  86.6378  86.7647  86.8905  87.0153  87.1390  87.2618

 M, (1/n)           2.016    2.016    2.016    2.016    2.016    2.016    2.016    2.016
 (dLV/dLP)t      -0.99999 -0.99999 -0.99999 -0.99999 -0.99999 -0.99999 -0.99999 -0.99999
 (dLV/dLT)p        1.0000   1.0000   1.0000   1.0000   1.0000   1.0000   1.0000   1.0000
 Cp, KJ/(KG)(K)   14.5276  14.5293  14.5311  14.5330  14.5350  14.5370  14.5391  14.5413
 GAMMAs            1.3965   1.3964   1.3963   1.3963   1.3962   1.3961   1.3960   1.3960
 SON VEL,M/SEC     1796.0   1803.9   1811.8   1819.7   1827.6   1835.4   1843.1   1850.9

 TRANSPORT PROPERTIES (GASES ONLY)
   CONDUCTIVITY IN UNITS OF MILLIWATTS/(CM)(K)

 VISC,MILLIPOISE  0.13709  0.13793  0.13877  0.13961  0.14044  0.14128  0.14211  0.14294

  WITH EQUILIBRIUM REACTIONS

 Cp, KJ/(KG)(K)   14.5276  14.5293  14.5311  14.5330  14.5350  14.5370  14.5391  14.5413
 CONDUCTIVITY      2.8909   2.9089   2.9268   2.9448   2.9627   2.9806   2.9984   3.0163
 PRANDTL NUMBER    0.6889   0.6889   0.6890   0.6890   0.6890   0.6891   0.6891   0.6891

  WITH FROZEN REACTIONS

 Cp, KJ/(KG)(K)   14.5276  14.5293  14.5311  14.5330  14.5350  14.5370  14.5391  14.5413
 CONDUCTIVITY      2.8909   2.9089   2.9268   2.9448   2.9627   2.9806   2.9984   3.0163
 PRANDTL NUMBER    0.6889   0.6889   0.6890   0.6890   0.6890   0.6891   0.6891   0.6891

 MASS FRACTIONS

 *H2              1.00000  1.00000  1.00000  1.00000  1.00000  1.00000  1.00000  1.00000

  * THERMODYNAMIC PROPERTIES FITTED TO 20000.K

 NOTE. WEIGHT FRACTION OF FUEL IN TOTAL FUELS AND OF OXIDANT IN TOTAL OXIDANTS









               THERMODYNAMIC EQUILIBRIUM PROPERTIES AT ASSIGNED

                           TEMPERATURE AND PRESSURE

 CASE =                

             REACTANT                    WT FRACTION      ENERGY      TEMP
                                          (SEE NOTE)     KJ/KG-MOL      K  
 FUEL        H2                           1.0000000         0.000      0.000
 OXIDANT     H2                           1.0000000         0.000      0.000

 O/F=    1.00000  %FUEL= 50.000000  R,EQ.RATIO= 0.000000  PHI,EQ.RATIO=-1.000000

 THERMODYNAMIC PROPERTIES

 P, BAR           0.05400  0.05400  0.05400  0.05400  0.05400  0.05400  0.05400  0.05400
 T, K              525.00   530.00   535.00   540.00   545.00   550.00   555.00   560.00
 RHO, KG/CU M    2.4938-3 2.4703-3 2.4472-3 2.4245-3 2.4023-3 2.3805-3 2.3590-3 2.3380-3
 H, KJ/KG         3280.96  3353.55  3426.15  3498.75  3571.36  3643.98  3716.60  3789.24
 U, KJ/KG         1115.61  1167.58  1219.55  1271.53  1323.52  1375.52  1427.52  1479.53
 G, KJ/KG        -41366.5 -41792.0 -42218.2 -42645.1 -43072.7 -43501.0 -43929.9 -44359.5
 S, KJ/(KG)(K)    85.0428  85.1803  85.3166  85.4517  85.5855  85.7181  85.8496  85.9799

 M, (1/n)           2.016    2.016    2.016    2.016    2.016    2.016    2.016    2.016
 (dLV/dLP)t      -0.99999 -0.99999 -0.99999 -0.99999 -0.99999 -0.99999 -0.99999 -0.99999
 (dLV/dLT)p        1.0000   1.0000   1.0000   1.0000   1.0000   1.0000   1.0000   1.0000
 Cp, KJ/(KG)(K)   14.5174  14.5186  14.5200  14.5214  14.5228  14.5243  14.5259  14.5276
 GAMMAs            1.3969   1.3968   1.3968   1.3967   1.3967   1.3966   1.3965   1.3965
 SON VEL,M/SEC     1739.2   1747.4   1755.6   1763.7   1771.9   1779.9   1788.0   1796.0

 TRANSPORT PROPERTIES (GASES ONLY)
   CONDUCTIVITY IN UNITS OF MILLIWATTS/(CM)(K)

 VISC,MILLIPOISE  0.13101  0.13196  0.13284  0.13370  0.13455  0.13540  0.13624  0.13709

  WITH EQUILIBRIUM REACTIONS

 Cp, KJ/(KG)(K)   14.5174  14.5186  14.5200  14.5214  14.5228  14.5243  14.5259  14.5276
 CONDUCTIVITY      2.7553   2.7800   2.7999   2.8185   2.8368   2.8549   2.8729   2.8909
 PRANDTL NUMBER    0.6903   0.6892   0.6889   0.6888   0.6888   0.6889   0.6889   0.6889

  WITH FROZEN REACTIONS

 Cp, KJ/(KG)(K)   14.5174  14.5186  14.5200  14.5214  14.5228  14.5243  14.5259  14.5276
 CONDUCTIVITY      2.7553   2.7800   2.7999   2.8185   2.8368   2.8549   2.8729   2.8909
 PRANDTL NUMBER    0.6903   0.6892   0.6889   0.6888   0.6888   0.6889   0.6889   0.6889

 MASS FRACTIONS

 *H2              1.00000  1.00000  1.00000  1.00000  1.00000  1.00000  1.00000  1.00000

  * THERMODYNAMIC PROPERTIES FITTED TO 20000.K

 NOTE. WEIGHT FRACTION OF FUEL IN TOTAL FUELS AND OF OXIDANT IN TOTAL OXIDANTS









               THERMODYNAMIC EQUILIBRIUM PROPERTIES AT ASSIGNED

                           TEMPERATURE AND PRESSURE

 CASE =                

             REACTANT                    WT FRACTION      ENERGY      TEMP
                                          (SEE NOTE)     KJ/KG-MOL      K  
 FUEL        H2                           1.0000000         0.000      0.000
 OXIDANT     H2                           1.0000000         0.000      0.000

 O/F=    1.00000  %FUEL= 50.000000  R,EQ.RATIO= 0.000000  PHI,EQ.RATIO=-1.000000

 THERMODYNAMIC PROPERTIES

 P, BAR           0.05400  0.05400  0.05400  0.05400  0.05400  0.05400  0.05400  0.06000
 T, K              565.00   570.00   575.00   580.00   585.00   590.00   595.00   525.00
 RHO, KG/CU M    2.3173-3 2.2969-3 2.2770-3 2.2573-3 2.2380-3 2.2191-3 2.2004-3 2.7709-3
 H, KJ/KG         3861.88  3934.53  4007.19  4079.86  4152.54  4225.23  4297.93  3280.96
 U, KJ/KG         1531.55  1583.58  1635.62  1687.67  1739.72  1791.79  1843.87  1115.61
 G, KJ/KG        -44789.7 -45220.6 -45652.1 -46084.2 -46517.0 -46950.4 -47384.4 -41138.4
 S, KJ/(KG)(K)    86.1090  86.2370  86.3640  86.4898  86.6146  86.7383  86.8610  84.6082

 M, (1/n)           2.016    2.016    2.016    2.016    2.016    2.016    2.016    2.016
 (dLV/dLP)t      -0.99999 -0.99999 -0.99999 -0.99999 -0.99999 -0.99999 -0.99999 -0.99999
 (dLV/dLT)p        1.0000   1.0000   1.0000   1.0000   1.0000   1.0000   1.0000   1.0000
 Cp, KJ/(KG)(K)   14.5293  14.5311  14.5330  14.5350  14.5370  14.5391  14.5413  14.5174
 GAMMAs            1.3964   1.3963   1.3963   1.3962   1.3961   1.3960   1.3960   1.3969
 SON VEL,M/SEC     1803.9   1811.8   1819.7   1827.6   1835.4   1843.1   1850.9   1739.2

 TRANSPORT PROPERTIES (GASES ONLY)
   CONDUCTIVITY IN UNITS OF MILLIWATTS/(CM)(K)

 VISC,MILLIPOISE  0.13793  0.13877  0.13961  0.14044  0.14128  0.14211  0.14294  0.13101

  WITH EQUILIBRIUM REACTIONS

 Cp, KJ/(KG)(K)   14.5293  14.5311  14.5330  14.5350  14.5370  14.5391  14.5413  14.5174
 CONDUCTIVITY      2.9089   2.9268   2.9448   2.9627   2.9806   2.9984   3.0163   2.7553
 PRANDTL NUMBER    0.6889   0.6890   0.6890   0.6890   0.6891   0.6891   0.6891   0.6903

  WITH FROZEN REACTIONS

 Cp, KJ/(KG)(K)   14.5293  14.5311  14.5330  14.5350  14.5370  14.5391  14.5413  14.5174
 CONDUCTIVITY      2.9089   2.9268   2.9448   2.9627   2.9806   2.9984   3.0163   2.7553
 PRANDTL NUMBER    0.6889   0.6890   0.6890   0.6890   0.6891   0.6891   0.6891   0.6903

 MASS FRACTIONS

 *H2              1.00000  1.00000  1.00000  1.00000  1.00000  1.00000  1.00000  1.00000

  * THERMODYNAMIC PROPERTIES FITTED TO 20000.K

 NOTE. WEIGHT FRACTION OF FUEL IN TOTAL FUELS AND OF OXIDANT IN TOTAL OXIDANTS









               THERMODYNAMIC EQUILIBRIUM PROPERTIES AT ASSIGNED

                           TEMPERATURE AND PRESSURE

 CASE =                

             REACTANT                    WT FRACTION      ENERGY      TEMP
                                          (SEE NOTE)     KJ/KG-MOL      K  
 FUEL        H2                           1.0000000         0.000      0.000
 OXIDANT     H2                           1.0000000         0.000      0.000

 O/F=    1.00000  %FUEL= 50.000000  R,EQ.RATIO= 0.000000  PHI,EQ.RATIO=-1.000000

 THERMODYNAMIC PROPERTIES

 P, BAR           0.06000  0.06000  0.06000  0.06000  0.06000  0.06000  0.06000  0.06000
 T, K              530.00   535.00   540.00   545.00   550.00   555.00   560.00   565.00
 RHO, KG/CU M    2.7448-3 2.7191-3 2.6939-3 2.6692-3 2.6450-3 2.6211-3 2.5977-3 2.5747-3
 H, KJ/KG         3353.55  3426.15  3498.75  3571.36  3643.98  3716.60  3789.24  3861.88
 U, KJ/KG         1167.58  1219.55  1271.53  1323.52  1375.52  1427.52  1479.53  1531.55
 G, KJ/KG        -41561.7 -41985.7 -42410.5 -42835.9 -43262.0 -43688.7 -44116.1 -44544.2
 S, KJ/(KG)(K)    84.7457  84.8820  85.0171  85.1509  85.2836  85.4150  85.5453  85.6745

 M, (1/n)           2.016    2.016    2.016    2.016    2.016    2.016    2.016    2.016
 (dLV/dLP)t      -0.99999 -0.99999 -0.99999 -0.99999 -0.99999 -0.99999 -0.99999 -0.99999
 (dLV/dLT)p        1.0000   1.0000   1.0000   1.0000   1.0000   1.0000   1.0000   1.0000
 Cp, KJ/(KG)(K)   14.5186  14.5200  14.5214  14.5228  14.5243  14.5259  14.5276  14.5293
 GAMMAs            1.3968   1.3968   1.3967   1.3967   1.3966   1.3965   1.3965   1.3964
 SON VEL,M/SEC     1747.4   1755.6   1763.7   1771.9   1779.9   1788.0   1796.0   1803.9

 TRANSPORT PROPERTIES (GASES ONLY)
   CONDUCTIVITY IN UNITS OF MILLIWATTS/(CM)(K)

 VISC,MILLIPOISE  0.13196  0.13284  0.13370  0.13455  0.13540  0.13624  0.13709  0.13793

  WITH EQUILIBRIUM REACTIONS

 Cp, KJ/(KG)(K)   14.5186  14.5200  14.5214  14.5228  14.5243  14.5259  14.5276  14.5293
 CONDUCTIVITY      2.7800   2.7999   2.8185   2.8368   2.8549   2.8729   2.8909   2.9089
 PRANDTL NUMBER    0.6892   0.6889   0.6888   0.6888   0.6889   0.6889   0.6889   0.6889

  WITH FROZEN REACTIONS

 Cp, KJ/(KG)(K)   14.5186  14.5200  14.5214  14.5228  14.5243  14.5259  14.5276  14.5293
 CONDUCTIVITY      2.7800   2.7999   2.8185   2.8368   2.8549   2.8729   2.8909   2.9089
 PRANDTL NUMBER    0.6892   0.6889   0.6888   0.6888   0.6889   0.6889   0.6889   0.6889

 MASS FRACTIONS

 *H2              1.00000  1.00000  1.00000  1.00000  1.00000  1.00000  1.00000  1.00000

  * THERMODYNAMIC PROPERTIES FITTED TO 20000.K

 NOTE. WEIGHT FRACTION OF FUEL IN TOTAL FUELS AND OF OXIDANT IN TOTAL OXIDANTS









               THERMODYNAMIC EQUILIBRIUM PROPERTIES AT ASSIGNED

                           TEMPERATURE AND PRESSURE

 CASE =                

             REACTANT                    WT FRACTION      ENERGY      TEMP
                                          (SEE NOTE)     KJ/KG-MOL      K  
 FUEL        H2                           1.0000000         0.000      0.000
 OXIDANT     H2                           1.0000000         0.000      0.000

 O/F=    1.00000  %FUEL= 50.000000  R,EQ.RATIO= 0.000000  PHI,EQ.RATIO=-1.000000

 THERMODYNAMIC PROPERTIES

 P, BAR           0.06000  0.06000  0.06000  0.06000  0.06000  0.06000  0.06700  0.06700
 T, K              570.00   575.00   580.00   585.00   590.00   595.00   525.00   530.00
 RHO, KG/CU M    2.5522-3 2.5300-3 2.5082-3 2.4867-3 2.4656-3 2.4449-3 3.0942-3 3.0650-3
 H, KJ/KG         3934.53  4007.19  4079.86  4152.54  4225.23  4297.93  3280.96  3353.55
 U, KJ/KG         1583.58  1635.62  1687.67  1739.72  1791.79  1843.87  1115.61  1167.58
 G, KJ/KG        -44972.9 -45402.2 -45832.2 -46262.8 -46694.0 -47125.8 -40899.4 -41320.5
 S, KJ/(KG)(K)    85.8025  85.9294  86.0552  86.1800  86.3037  86.4264  84.1531  84.2906

 M, (1/n)           2.016    2.016    2.016    2.016    2.016    2.016    2.016    2.016
 (dLV/dLP)t      -0.99999 -0.99999 -0.99999 -0.99999 -0.99999 -0.99999 -0.99999 -0.99999
 (dLV/dLT)p        1.0000   1.0000   1.0000   1.0000   1.0000   1.0000   1.0000   1.0000
 Cp, KJ/(KG)(K)   14.5311  14.5330  14.5350  14.5370  14.5391  14.5413  14.5174  14.5186
 GAMMAs            1.3963   1.3963   1.3962   1.3961   1.3960   1.3960   1.3969   1.3968
 SON VEL,M/SEC     1811.8   1819.7   1827.6   1835.4   1843.1   1850.9   1739.2   1747.4

 TRANSPORT PROPERTIES (GASES ONLY)
   CONDUCTIVITY IN UNITS OF MILLIWATTS/(CM)(K)

 VISC,MILLIPOISE  0.13877  0.13961  0.14044  0.14128  0.14211  0.14294  0.13101  0.13196

  WITH EQUILIBRIUM REACTIONS

 Cp, KJ/(KG)(K)   14.5311  14.5330  14.5350  14.5370  14.5391  14.5413  14.5174  14.5186
 CONDUCTIVITY      2.9268   2.9448   2.9627   2.9806   2.9984   3.0163   2.7553   2.7800
 PRANDTL NUMBER    0.6890   0.6890   0.6890   0.6891   0.6891   0.6891   0.6903   0.6892

  WITH FROZEN REACTIONS

 Cp, KJ/(KG)(K)   14.5311  14.5330  14.5350  14.5370  14.5391  14.5413  14.5174  14.5186
 CONDUCTIVITY      2.9268   2.9448   2.9627   2.9806   2.9984   3.0163   2.7553   2.7800
 PRANDTL NUMBER    0.6890   0.6890   0.6890   0.6891   0.6891   0.6891   0.6903   0.6892

 MASS FRACTIONS

 *H2              1.00000  1.00000  1.00000  1.00000  1.00000  1.00000  1.00000  1.00000

  * THERMODYNAMIC PROPERTIES FITTED TO 20000.K

 NOTE. WEIGHT FRACTION OF FUEL IN TOTAL FUELS AND OF OXIDANT IN TOTAL OXIDANTS









               THERMODYNAMIC EQUILIBRIUM PROPERTIES AT ASSIGNED

                           TEMPERATURE AND PRESSURE

 CASE =                

             REACTANT                    WT FRACTION      ENERGY      TEMP
                                          (SEE NOTE)     KJ/KG-MOL      K  
 FUEL        H2                           1.0000000         0.000      0.000
 OXIDANT     H2                           1.0000000         0.000      0.000

 O/F=    1.00000  %FUEL= 50.000000  R,EQ.RATIO= 0.000000  PHI,EQ.RATIO=-1.000000

 THERMODYNAMIC PROPERTIES

 P, BAR           0.06700  0.06700  0.06700  0.06700  0.06700  0.06700  0.06700  0.06700
 T, K              535.00   540.00   545.00   550.00   555.00   560.00   565.00   570.00
 RHO, KG/CU M    3.0364-3 3.0082-3 2.9806-3 2.9535-3 2.9269-3 2.9008-3 2.8751-3 2.8499-3
 H, KJ/KG         3426.15  3498.75  3571.36  3643.98  3716.60  3789.24  3861.88  3934.53
 U, KJ/KG         1219.55  1271.53  1323.52  1375.52  1427.52  1479.53  1531.55  1583.58
 G, KJ/KG        -41742.2 -42164.7 -42587.9 -43011.7 -43436.1 -43861.3 -44287.0 -44713.5
 S, KJ/(KG)(K)    84.4269  84.5620  84.6958  84.8284  84.9599  85.0902  85.2193  85.3473

 M, (1/n)           2.016    2.016    2.016    2.016    2.016    2.016    2.016    2.016
 (dLV/dLP)t      -0.99999 -0.99999 -0.99999 -0.99999 -0.99999 -0.99999 -0.99999 -0.99999
 (dLV/dLT)p        1.0000   1.0000   1.0000   1.0000   1.0000   1.0000   1.0000   1.0000
 Cp, KJ/(KG)(K)   14.5200  14.5214  14.5228  14.5243  14.5259  14.5276  14.5293  14.5311
 GAMMAs            1.3968   1.3967   1.3967   1.3966   1.3965   1.3965   1.3964   1.3963
 SON VEL,M/SEC     1755.6   1763.7   1771.9   1779.9   1788.0   1796.0   1803.9   1811.8

 TRANSPORT PROPERTIES (GASES ONLY)
   CONDUCTIVITY IN UNITS OF MILLIWATTS/(CM)(K)

 VISC,MILLIPOISE  0.13284  0.13370  0.13455  0.13540  0.13624  0.13709  0.13793  0.13877

  WITH EQUILIBRIUM REACTIONS

 Cp, KJ/(KG)(K)   14.5200  14.5214  14.5228  14.5243  14.5259  14.5276  14.5293  14.5311
 CONDUCTIVITY      2.7999   2.8185   2.8368   2.8549   2.8729   2.8909   2.9089   2.9268
 PRANDTL NUMBER    0.6889   0.6888   0.6888   0.6889   0.6889   0.6889   0.6889   0.6890

  WITH FROZEN REACTIONS

 Cp, KJ/(KG)(K)   14.5200  14.5214  14.5228  14.5243  14.5259  14.5276  14.5293  14.5311
 CONDUCTIVITY      2.7999   2.8185   2.8368   2.8549   2.8729   2.8909   2.9089   2.9268
 PRANDTL NUMBER    0.6889   0.6888   0.6888   0.6889   0.6889   0.6889   0.6889   0.6890

 MASS FRACTIONS

 *H2              1.00000  1.00000  1.00000  1.00000  1.00000  1.00000  1.00000  1.00000

  * THERMODYNAMIC PROPERTIES FITTED TO 20000.K

 NOTE. WEIGHT FRACTION OF FUEL IN TOTAL FUELS AND OF OXIDANT IN TOTAL OXIDANTS









               THERMODYNAMIC EQUILIBRIUM PROPERTIES AT ASSIGNED

                           TEMPERATURE AND PRESSURE

 CASE =                

             REACTANT                    WT FRACTION      ENERGY      TEMP
                                          (SEE NOTE)     KJ/KG-MOL      K  
 FUEL        H2                           1.0000000         0.000      0.000
 OXIDANT     H2                           1.0000000         0.000      0.000

 O/F=    1.00000  %FUEL= 50.000000  R,EQ.RATIO= 0.000000  PHI,EQ.RATIO=-1.000000

 THERMODYNAMIC PROPERTIES

 P, BAR           0.06700  0.06700  0.06700  0.06700  0.06700  0.07400  0.07400  0.07400
 T, K              575.00   580.00   585.00   590.00   595.00   525.00   530.00   535.00
 RHO, KG/CU M    2.8251-3 2.8008-3 2.7768-3 2.7533-3 2.7302-3 3.4175-3 3.3852-3 3.3536-3
 H, KJ/KG         4007.19  4079.86  4152.54  4225.23  4297.93  3280.96  3353.55  3426.15
 U, KJ/KG         1635.62  1687.67  1739.72  1791.79  1843.87  1115.61  1167.58  1219.55
 G, KJ/KG        -45140.5 -45568.2 -45996.5 -46425.4 -46855.0 -40684.2 -41103.2 -41523.0
 S, KJ/(KG)(K)    85.4743  85.6001  85.7249  85.8486  85.9713  83.7432  83.8808  84.0170

 M, (1/n)           2.016    2.016    2.016    2.016    2.016    2.016    2.016    2.016
 (dLV/dLP)t      -0.99999 -0.99999 -0.99999 -0.99999 -0.99999 -0.99999 -0.99999 -0.99999
 (dLV/dLT)p        1.0000   1.0000   1.0000   1.0000   1.0000   1.0000   1.0000   1.0000
 Cp, KJ/(KG)(K)   14.5330  14.5350  14.5370  14.5391  14.5413  14.5174  14.5186  14.5200
 GAMMAs            1.3963   1.3962   1.3961   1.3960   1.3960   1.3969   1.3968   1.3968
 SON VEL,M/SEC     1819.7   1827.6   1835.4   1843.1   1850.9   1739.2   1747.4   1755.6

 TRANSPORT PROPERTIES (GASES ONLY)
   CONDUCTIVITY IN UNITS OF MILLIWATTS/(CM)(K)

 VISC,MILLIPOISE  0.13961  0.14044  0.14128  0.14211  0.14294  0.13101  0.13196  0.13284

  WITH EQUILIBRIUM REACTIONS

 Cp, KJ/(KG)(K)   14.5330  14.5350  14.5370  14.5391  14.5413  14.5174  14.5186  14.5200
 CONDUCTIVITY      2.9448   2.9627   2.9806   2.9984   3.0163   2.7553   2.7800   2.7999
 PRANDTL NUMBER    0.6890   0.6890   0.6891   0.6891   0.6891   0.6903   0.6892   0.6889

  WITH FROZEN REACTIONS

 Cp, KJ/(KG)(K)   14.5330  14.5350  14.5370  14.5391  14.5413  14.5174  14.5186  14.5200
 CONDUCTIVITY      2.9448   2.9627   2.9806   2.9984   3.0163   2.7553   2.7800   2.7999
 PRANDTL NUMBER    0.6890   0.6890   0.6891   0.6891   0.6891   0.6903   0.6892   0.6889

 MASS FRACTIONS

 *H2              1.00000  1.00000  1.00000  1.00000  1.00000  1.00000  1.00000  1.00000

  * THERMODYNAMIC PROPERTIES FITTED TO 20000.K

 NOTE. WEIGHT FRACTION OF FUEL IN TOTAL FUELS AND OF OXIDANT IN TOTAL OXIDANTS









               THERMODYNAMIC EQUILIBRIUM PROPERTIES AT ASSIGNED

                           TEMPERATURE AND PRESSURE

 CASE =                

             REACTANT                    WT FRACTION      ENERGY      TEMP
                                          (SEE NOTE)     KJ/KG-MOL      K  
 FUEL        H2                           1.0000000         0.000      0.000
 OXIDANT     H2                           1.0000000         0.000      0.000

 O/F=    1.00000  %FUEL= 50.000000  R,EQ.RATIO= 0.000000  PHI,EQ.RATIO=-1.000000

 THERMODYNAMIC PROPERTIES

 P, BAR           0.07400  0.07400  0.07400  0.07400  0.07400  0.07400  0.07400  0.07400
 T, K              540.00   545.00   550.00   555.00   560.00   565.00   570.00   575.00
 RHO, KG/CU M    3.3225-3 3.2920-3 3.2621-3 3.2327-3 3.2039-3 3.1755-3 3.1477-3 3.1203-3
 H, KJ/KG         3498.75  3571.36  3643.98  3716.60  3789.24  3861.88  3934.53  4007.19
 U, KJ/KG         1271.53  1323.52  1375.52  1427.52  1479.53  1531.55  1583.58  1635.62
 G, KJ/KG        -41943.4 -42364.5 -42786.2 -43208.7 -43631.7 -44055.5 -44479.8 -44904.8
 S, KJ/(KG)(K)    84.1521  84.2860  84.4186  84.5500  84.6803  84.8095  84.9375  85.0644

 M, (1/n)           2.016    2.016    2.016    2.016    2.016    2.016    2.016    2.016
 (dLV/dLP)t      -0.99999 -0.99999 -0.99999 -0.99999 -0.99999 -0.99999 -0.99999 -0.99999
 (dLV/dLT)p        1.0000   1.0000   1.0000   1.0000   1.0000   1.0000   1.0000   1.0000
 Cp, KJ/(KG)(K)   14.5214  14.5228  14.5243  14.5259  14.5276  14.5293  14.5311  14.5330
 GAMMAs            1.3967   1.3967   1.3966   1.3965   1.3965   1.3964   1.3963   1.3963
 SON VEL,M/SEC     1763.7   1771.9   1779.9   1788.0   1796.0   1803.9   1811.8   1819.7

 TRANSPORT PROPERTIES (GASES ONLY)
   CONDUCTIVITY IN UNITS OF MILLIWATTS/(CM)(K)

 VISC,MILLIPOISE  0.13370  0.13455  0.13540  0.13624  0.13709  0.13793  0.13877  0.13961

  WITH EQUILIBRIUM REACTIONS

 Cp, KJ/(KG)(K)   14.5214  14.5228  14.5243  14.5259  14.5276  14.5293  14.5311  14.5330
 CONDUCTIVITY      2.8185   2.8368   2.8549   2.8729   2.8909   2.9089   2.9268   2.9448
 PRANDTL NUMBER    0.6888   0.6888   0.6889   0.6889   0.6889   0.6889   0.6890   0.6890

  WITH FROZEN REACTIONS

 Cp, KJ/(KG)(K)   14.5214  14.5228  14.5243  14.5259  14.5276  14.5293  14.5311  14.5330
 CONDUCTIVITY      2.8185   2.8368   2.8549   2.8729   2.8909   2.9089   2.9268   2.9448
 PRANDTL NUMBER    0.6888   0.6888   0.6889   0.6889   0.6889   0.6889   0.6890   0.6890

 MASS FRACTIONS

 *H2              1.00000  1.00000  1.00000  1.00000  1.00000  1.00000  1.00000  1.00000

  * THERMODYNAMIC PROPERTIES FITTED TO 20000.K

 NOTE. WEIGHT FRACTION OF FUEL IN TOTAL FUELS AND OF OXIDANT IN TOTAL OXIDANTS









               THERMODYNAMIC EQUILIBRIUM PROPERTIES AT ASSIGNED

                           TEMPERATURE AND PRESSURE

 CASE =                

             REACTANT                    WT FRACTION      ENERGY      TEMP
                                          (SEE NOTE)     KJ/KG-MOL      K  
 FUEL        H2                           1.0000000         0.000      0.000
 OXIDANT     H2                           1.0000000         0.000      0.000

 O/F=    1.00000  %FUEL= 50.000000  R,EQ.RATIO= 0.000000  PHI,EQ.RATIO=-1.000000

 THERMODYNAMIC PROPERTIES

 P, BAR           0.07400  0.07400  0.07400  0.07400  0.08250  0.08250  0.08250  0.08250
 T, K              580.00   585.00   590.00   595.00   525.00   530.00   535.00   540.00
 RHO, KG/CU M    3.0934-3 3.0670-3 3.0410-3 3.0154-3 3.8100-3 3.7741-3 3.7388-3 3.7042-3
 H, KJ/KG         4079.86  4152.54  4225.23  4297.93  3280.96  3353.55  3426.15  3498.75
 U, KJ/KG         1687.67  1739.72  1791.79  1843.87  1115.61  1167.58  1219.55  1271.53
 G, KJ/KG        -45330.5 -45756.7 -46183.6 -46611.1 -40448.8 -40865.6 -41283.0 -41701.2
 S, KJ/(KG)(K)    85.1902  85.3150  85.4387  85.5614  83.2948  83.4323  83.5686  83.7036

 M, (1/n)           2.016    2.016    2.016    2.016    2.016    2.016    2.016    2.016
 (dLV/dLP)t      -0.99999 -0.99999 -0.99999 -0.99999 -0.99999 -0.99999 -0.99999 -0.99999
 (dLV/dLT)p        1.0000   1.0000   1.0000   1.0000   1.0000   1.0000   1.0000   1.0000
 Cp, KJ/(KG)(K)   14.5350  14.5370  14.5391  14.5413  14.5174  14.5186  14.5200  14.5214
 GAMMAs            1.3962   1.3961   1.3960   1.3960   1.3969   1.3968   1.3968   1.3967
 SON VEL,M/SEC     1827.6   1835.4   1843.1   1850.9   1739.2   1747.4   1755.6   1763.7

 TRANSPORT PROPERTIES (GASES ONLY)
   CONDUCTIVITY IN UNITS OF MILLIWATTS/(CM)(K)

 VISC,MILLIPOISE  0.14044  0.14128  0.14211  0.14294  0.13101  0.13196  0.13284  0.13370

  WITH EQUILIBRIUM REACTIONS

 Cp, KJ/(KG)(K)   14.5350  14.5370  14.5391  14.5413  14.5174  14.5186  14.5200  14.5214
 CONDUCTIVITY      2.9627   2.9806   2.9984   3.0163   2.7553   2.7800   2.7999   2.8185
 PRANDTL NUMBER    0.6890   0.6891   0.6891   0.6891   0.6903   0.6892   0.6889   0.6888

  WITH FROZEN REACTIONS

 Cp, KJ/(KG)(K)   14.5350  14.5370  14.5391  14.5413  14.5174  14.5186  14.5200  14.5214
 CONDUCTIVITY      2.9627   2.9806   2.9984   3.0163   2.7553   2.7800   2.7999   2.8185
 PRANDTL NUMBER    0.6890   0.6891   0.6891   0.6891   0.6903   0.6892   0.6889   0.6888

 MASS FRACTIONS

 *H2              1.00000  1.00000  1.00000  1.00000  1.00000  1.00000  1.00000  1.00000

  * THERMODYNAMIC PROPERTIES FITTED TO 20000.K

 NOTE. WEIGHT FRACTION OF FUEL IN TOTAL FUELS AND OF OXIDANT IN TOTAL OXIDANTS









               THERMODYNAMIC EQUILIBRIUM PROPERTIES AT ASSIGNED

                           TEMPERATURE AND PRESSURE

 CASE =                

             REACTANT                    WT FRACTION      ENERGY      TEMP
                                          (SEE NOTE)     KJ/KG-MOL      K  
 FUEL        H2                           1.0000000         0.000      0.000
 OXIDANT     H2                           1.0000000         0.000      0.000

 O/F=    1.00000  %FUEL= 50.000000  R,EQ.RATIO= 0.000000  PHI,EQ.RATIO=-1.000000

 THERMODYNAMIC PROPERTIES

 P, BAR           0.08250  0.08250  0.08250  0.08250  0.08250  0.08250  0.08250  0.08250
 T, K              545.00   550.00   555.00   560.00   565.00   570.00   575.00   580.00
 RHO, KG/CU M    3.6702-3 3.6368-3 3.6041-3 3.5719-3 3.5403-3 3.5092-3 3.4787-3 3.4487-3
 H, KJ/KG         3571.36  3643.98  3716.60  3789.24  3861.88  3934.53  4007.19  4079.86
 U, KJ/KG         1323.52  1375.52  1427.52  1479.53  1531.55  1583.58  1635.62  1687.67
 G, KJ/KG        -42120.1 -42539.6 -42959.8 -43380.6 -43802.1 -44224.2 -44647.0 -45070.4
 S, KJ/(KG)(K)    83.8375  83.9701  84.1016  84.2319  84.3610  84.4890  84.6159  84.7418

 M, (1/n)           2.016    2.016    2.016    2.016    2.016    2.016    2.016    2.016
 (dLV/dLP)t      -0.99999 -0.99999 -0.99999 -0.99999 -0.99999 -0.99999 -0.99999 -0.99999
 (dLV/dLT)p        1.0000   1.0000   1.0000   1.0000   1.0000   1.0000   1.0000   1.0000
 Cp, KJ/(KG)(K)   14.5228  14.5243  14.5259  14.5276  14.5293  14.5311  14.5330  14.5350
 GAMMAs            1.3967   1.3966   1.3965   1.3965   1.3964   1.3963   1.3963   1.3962
 SON VEL,M/SEC     1771.9   1779.9   1788.0   1796.0   1803.9   1811.8   1819.7   1827.6

 TRANSPORT PROPERTIES (GASES ONLY)
   CONDUCTIVITY IN UNITS OF MILLIWATTS/(CM)(K)

 VISC,MILLIPOISE  0.13455  0.13540  0.13624  0.13709  0.13793  0.13877  0.13961  0.14044

  WITH EQUILIBRIUM REACTIONS

 Cp, KJ/(KG)(K)   14.5228  14.5243  14.5259  14.5276  14.5293  14.5311  14.5330  14.5350
 CONDUCTIVITY      2.8368   2.8549   2.8729   2.8909   2.9089   2.9268   2.9448   2.9627
 PRANDTL NUMBER    0.6888   0.6889   0.6889   0.6889   0.6889   0.6890   0.6890   0.6890

  WITH FROZEN REACTIONS

 Cp, KJ/(KG)(K)   14.5228  14.5243  14.5259  14.5276  14.5293  14.5311  14.5330  14.5350
 CONDUCTIVITY      2.8368   2.8549   2.8729   2.8909   2.9089   2.9268   2.9448   2.9627
 PRANDTL NUMBER    0.6888   0.6889   0.6889   0.6889   0.6889   0.6890   0.6890   0.6890

 MASS FRACTIONS

 *H2              1.00000  1.00000  1.00000  1.00000  1.00000  1.00000  1.00000  1.00000

  * THERMODYNAMIC PROPERTIES FITTED TO 20000.K

 NOTE. WEIGHT FRACTION OF FUEL IN TOTAL FUELS AND OF OXIDANT IN TOTAL OXIDANTS









               THERMODYNAMIC EQUILIBRIUM PROPERTIES AT ASSIGNED

                           TEMPERATURE AND PRESSURE

 CASE =                

             REACTANT                    WT FRACTION      ENERGY      TEMP
                                          (SEE NOTE)     KJ/KG-MOL      K  
 FUEL        H2                           1.0000000         0.000      0.000
 OXIDANT     H2                           1.0000000         0.000      0.000

 O/F=    1.00000  %FUEL= 50.000000  R,EQ.RATIO= 0.000000  PHI,EQ.RATIO=-1.000000

 THERMODYNAMIC PROPERTIES

 P, BAR           0.08250  0.08250  0.08250  0.09100  0.09100  0.09100  0.09100  0.09100
 T, K              585.00   590.00   595.00   525.00   530.00   535.00   540.00   545.00
 RHO, KG/CU M    3.4192-3 3.3903-3 3.3618-3 4.2025-3 4.1629-3 4.1240-3 4.0858-3 4.0483-3
 H, KJ/KG         4152.54  4225.23  4297.93  3280.96  3353.55  3426.15  3498.75  3571.36
 U, KJ/KG         1739.72  1791.79  1843.87  1115.61  1167.58  1219.55  1271.53  1323.52
 G, KJ/KG        -45494.4 -45919.0 -46344.3 -40236.4 -40651.2 -41066.7 -41482.8 -41899.6
 S, KJ/(KG)(K)    84.8665  84.9903  85.1130  82.8903  83.0278  83.1641  83.2992  83.4330

 M, (1/n)           2.016    2.016    2.016    2.016    2.016    2.016    2.016    2.016
 (dLV/dLP)t      -0.99999 -0.99999 -0.99999 -0.99999 -0.99999 -0.99999 -0.99999 -0.99999
 (dLV/dLT)p        1.0000   1.0000   1.0000   1.0000   1.0000   1.0000   1.0000   1.0000
 Cp, KJ/(KG)(K)   14.5370  14.5391  14.5413  14.5174  14.5186  14.5200  14.5214  14.5228
 GAMMAs            1.3961   1.3960   1.3960   1.3969   1.3968   1.3968   1.3967   1.3967
 SON VEL,M/SEC     1835.4   1843.1   1850.9   1739.2   1747.4   1755.6   1763.7   1771.9

 TRANSPORT PROPERTIES (GASES ONLY)
   CONDUCTIVITY IN UNITS OF MILLIWATTS/(CM)(K)

 VISC,MILLIPOISE  0.14128  0.14211  0.14294  0.13101  0.13196  0.13284  0.13370  0.13455

  WITH EQUILIBRIUM REACTIONS

 Cp, KJ/(KG)(K)   14.5370  14.5391  14.5413  14.5174  14.5186  14.5200  14.5214  14.5228
 CONDUCTIVITY      2.9806   2.9984   3.0163   2.7553   2.7800   2.7999   2.8185   2.8368
 PRANDTL NUMBER    0.6891   0.6891   0.6891   0.6903   0.6892   0.6889   0.6888   0.6888

  WITH FROZEN REACTIONS

 Cp, KJ/(KG)(K)   14.5370  14.5391  14.5413  14.5174  14.5186  14.5200  14.5214  14.5228
 CONDUCTIVITY      2.9806   2.9984   3.0163   2.7553   2.7800   2.7999   2.8185   2.8368
 PRANDTL NUMBER    0.6891   0.6891   0.6891   0.6903   0.6892   0.6889   0.6888   0.6888

 MASS FRACTIONS

 *H2              1.00000  1.00000  1.00000  1.00000  1.00000  1.00000  1.00000  1.00000

  * THERMODYNAMIC PROPERTIES FITTED TO 20000.K

 NOTE. WEIGHT FRACTION OF FUEL IN TOTAL FUELS AND OF OXIDANT IN TOTAL OXIDANTS









               THERMODYNAMIC EQUILIBRIUM PROPERTIES AT ASSIGNED

                           TEMPERATURE AND PRESSURE

 CASE =                

             REACTANT                    WT FRACTION      ENERGY      TEMP
                                          (SEE NOTE)     KJ/KG-MOL      K  
 FUEL        H2                           1.0000000         0.000      0.000
 OXIDANT     H2                           1.0000000         0.000      0.000

 O/F=    1.00000  %FUEL= 50.000000  R,EQ.RATIO= 0.000000  PHI,EQ.RATIO=-1.000000

 THERMODYNAMIC PROPERTIES

 P, BAR           0.09100  0.09100  0.09100  0.09100  0.09100  0.09100  0.09100  0.09100
 T, K              550.00   555.00   560.00   565.00   570.00   575.00   580.00   585.00
 RHO, KG/CU M    4.0115-3 3.9754-3 3.9399-3 3.9050-3 3.8708-3 3.8371-3 3.8040-3 3.7715-3
 H, KJ/KG         3643.98  3716.60  3789.24  3861.88  3934.53  4007.19  4079.86  4152.54
 U, KJ/KG         1375.52  1427.52  1479.53  1531.55  1583.58  1635.62  1687.67  1739.72
 G, KJ/KG        -42317.1 -42735.3 -43154.1 -43573.6 -43993.7 -44414.4 -44835.8 -45257.8
 S, KJ/(KG)(K)    83.5657  83.6971  83.8274  83.9565  84.0846  84.2115  84.3373  84.4621

 M, (1/n)           2.016    2.016    2.016    2.016    2.016    2.016    2.016    2.016
 (dLV/dLP)t      -0.99999 -0.99999 -0.99999 -0.99999 -0.99999 -0.99999 -0.99999 -0.99999
 (dLV/dLT)p        1.0000   1.0000   1.0000   1.0000   1.0000   1.0000   1.0000   1.0000
 Cp, KJ/(KG)(K)   14.5243  14.5259  14.5276  14.5293  14.5311  14.5330  14.5350  14.5370
 GAMMAs            1.3966   1.3965   1.3965   1.3964   1.3963   1.3963   1.3962   1.3961
 SON VEL,M/SEC     1779.9   1788.0   1796.0   1803.9   1811.8   1819.7   1827.6   1835.4

 TRANSPORT PROPERTIES (GASES ONLY)
   CONDUCTIVITY IN UNITS OF MILLIWATTS/(CM)(K)

 VISC,MILLIPOISE  0.13540  0.13624  0.13709  0.13793  0.13877  0.13961  0.14044  0.14128

  WITH EQUILIBRIUM REACTIONS

 Cp, KJ/(KG)(K)   14.5243  14.5259  14.5276  14.5293  14.5311  14.5330  14.5350  14.5370
 CONDUCTIVITY      2.8549   2.8729   2.8909   2.9089   2.9268   2.9448   2.9627   2.9806
 PRANDTL NUMBER    0.6889   0.6889   0.6889   0.6889   0.6890   0.6890   0.6890   0.6891

  WITH FROZEN REACTIONS

 Cp, KJ/(KG)(K)   14.5243  14.5259  14.5276  14.5293  14.5311  14.5330  14.5350  14.5370
 CONDUCTIVITY      2.8549   2.8729   2.8909   2.9089   2.9268   2.9448   2.9627   2.9806
 PRANDTL NUMBER    0.6889   0.6889   0.6889   0.6889   0.6890   0.6890   0.6890   0.6891

 MASS FRACTIONS

 *H2              1.00000  1.00000  1.00000  1.00000  1.00000  1.00000  1.00000  1.00000

  * THERMODYNAMIC PROPERTIES FITTED TO 20000.K

 NOTE. WEIGHT FRACTION OF FUEL IN TOTAL FUELS AND OF OXIDANT IN TOTAL OXIDANTS









               THERMODYNAMIC EQUILIBRIUM PROPERTIES AT ASSIGNED

                           TEMPERATURE AND PRESSURE

 CASE =                

             REACTANT                    WT FRACTION      ENERGY      TEMP
                                          (SEE NOTE)     KJ/KG-MOL      K  
 FUEL        H2                           1.0000000         0.000      0.000
 OXIDANT     H2                           1.0000000         0.000      0.000

 O/F=    1.00000  %FUEL= 50.000000  R,EQ.RATIO= 0.000000  PHI,EQ.RATIO=-1.000000

 THERMODYNAMIC PROPERTIES

 P, BAR           0.09100  0.09100  0.10000  0.10000  0.10000  0.10000  0.10000  0.10000
 T, K              590.00   595.00   525.00   530.00   535.00   540.00   545.00   550.00
 RHO, KG/CU M    3.7396-3 3.7081-3 4.6182-3 4.5746-3 4.5319-3 4.4899-3 4.4487-3 4.4083-3
 H, KJ/KG         4225.23  4297.93  3280.96  3353.55  3426.15  3498.75  3571.36  3643.98
 U, KJ/KG         1791.79  1843.87  1115.61  1167.58  1219.55  1271.53  1323.52  1375.52
 G, KJ/KG        -45680.4 -46103.6 -40032.2 -40445.0 -40858.6 -41272.8 -41687.6 -42103.2
 S, KJ/(KG)(K)    84.5858  84.7085  82.5013  82.6388  82.7751  82.9102  83.0440  83.1767

 M, (1/n)           2.016    2.016    2.016    2.016    2.016    2.016    2.016    2.016
 (dLV/dLP)t      -0.99999 -0.99999 -0.99999 -0.99999 -0.99999 -0.99999 -0.99999 -0.99999
 (dLV/dLT)p        1.0000   1.0000   1.0000   1.0000   1.0000   1.0000   1.0000   1.0000
 Cp, KJ/(KG)(K)   14.5391  14.5413  14.5174  14.5186  14.5200  14.5214  14.5228  14.5243
 GAMMAs            1.3960   1.3960   1.3969   1.3968   1.3968   1.3967   1.3967   1.3966
 SON VEL,M/SEC     1843.1   1850.9   1739.2   1747.4   1755.6   1763.7   1771.9   1779.9

 TRANSPORT PROPERTIES (GASES ONLY)
   CONDUCTIVITY IN UNITS OF MILLIWATTS/(CM)(K)

 VISC,MILLIPOISE  0.14211  0.14294  0.13101  0.13196  0.13284  0.13370  0.13455  0.13540

  WITH EQUILIBRIUM REACTIONS

 Cp, KJ/(KG)(K)   14.5391  14.5413  14.5174  14.5186  14.5200  14.5214  14.5228  14.5243
 CONDUCTIVITY      2.9984   3.0163   2.7553   2.7800   2.7999   2.8185   2.8368   2.8549
 PRANDTL NUMBER    0.6891   0.6891   0.6903   0.6892   0.6889   0.6888   0.6888   0.6889

  WITH FROZEN REACTIONS

 Cp, KJ/(KG)(K)   14.5391  14.5413  14.5174  14.5186  14.5200  14.5214  14.5228  14.5243
 CONDUCTIVITY      2.9984   3.0163   2.7553   2.7800   2.7999   2.8185   2.8368   2.8549
 PRANDTL NUMBER    0.6891   0.6891   0.6903   0.6892   0.6889   0.6888   0.6888   0.6889

 MASS FRACTIONS

 *H2              1.00000  1.00000  1.00000  1.00000  1.00000  1.00000  1.00000  1.00000

  * THERMODYNAMIC PROPERTIES FITTED TO 20000.K

 NOTE. WEIGHT FRACTION OF FUEL IN TOTAL FUELS AND OF OXIDANT IN TOTAL OXIDANTS









               THERMODYNAMIC EQUILIBRIUM PROPERTIES AT ASSIGNED

                           TEMPERATURE AND PRESSURE

 CASE =                

             REACTANT                    WT FRACTION      ENERGY      TEMP
                                          (SEE NOTE)     KJ/KG-MOL      K  
 FUEL        H2                           1.0000000         0.000      0.000
 OXIDANT     H2                           1.0000000         0.000      0.000

 O/F=    1.00000  %FUEL= 50.000000  R,EQ.RATIO= 0.000000  PHI,EQ.RATIO=-1.000000

 THERMODYNAMIC PROPERTIES

 P, BAR           0.10000  0.10000  0.10000  0.10000  0.10000  0.10000  0.10000  0.10000
 T, K              555.00   560.00   565.00   570.00   575.00   580.00   585.00   590.00
 RHO, KG/CU M    4.3686-3 4.3296-3 4.2912-3 4.2536-3 4.2166-3 4.1803-3 4.1445-3 4.1094-3
 H, KJ/KG         3716.60  3789.24  3861.88  3934.53  4007.19  4079.86  4152.54  4225.23
 U, KJ/KG         1427.52  1479.53  1531.55  1583.58  1635.62  1687.67  1739.72  1791.79
 G, KJ/KG        -42519.4 -42936.3 -43353.8 -43771.9 -44190.7 -44610.2 -45030.2 -45450.9
 S, KJ/(KG)(K)    83.3081  83.4384  83.5676  83.6956  83.8225  83.9483  84.0731  84.1968

 M, (1/n)           2.016    2.016    2.016    2.016    2.016    2.016    2.016    2.016
 (dLV/dLP)t      -0.99999 -0.99999 -0.99999 -0.99999 -0.99999 -0.99999 -0.99999 -0.99999
 (dLV/dLT)p        1.0000   1.0000   1.0000   1.0000   1.0000   1.0000   1.0000   1.0000
 Cp, KJ/(KG)(K)   14.5259  14.5276  14.5293  14.5311  14.5330  14.5350  14.5370  14.5391
 GAMMAs            1.3965   1.3965   1.3964   1.3963   1.3963   1.3962   1.3961   1.3960
 SON VEL,M/SEC     1788.0   1796.0   1803.9   1811.8   1819.7   1827.6   1835.4   1843.1

 TRANSPORT PROPERTIES (GASES ONLY)
   CONDUCTIVITY IN UNITS OF MILLIWATTS/(CM)(K)

 VISC,MILLIPOISE  0.13624  0.13709  0.13793  0.13877  0.13961  0.14044  0.14128  0.14211

  WITH EQUILIBRIUM REACTIONS

 Cp, KJ/(KG)(K)   14.5259  14.5276  14.5293  14.5311  14.5330  14.5350  14.5370  14.5391
 CONDUCTIVITY      2.8729   2.8909   2.9089   2.9268   2.9448   2.9627   2.9806   2.9984
 PRANDTL NUMBER    0.6889   0.6889   0.6889   0.6890   0.6890   0.6890   0.6891   0.6891

  WITH FROZEN REACTIONS

 Cp, KJ/(KG)(K)   14.5259  14.5276  14.5293  14.5311  14.5330  14.5350  14.5370  14.5391
 CONDUCTIVITY      2.8729   2.8909   2.9089   2.9268   2.9448   2.9627   2.9806   2.9984
 PRANDTL NUMBER    0.6889   0.6889   0.6889   0.6890   0.6890   0.6890   0.6891   0.6891

 MASS FRACTIONS

 *H2              1.00000  1.00000  1.00000  1.00000  1.00000  1.00000  1.00000  1.00000

  * THERMODYNAMIC PROPERTIES FITTED TO 20000.K

 NOTE. WEIGHT FRACTION OF FUEL IN TOTAL FUELS AND OF OXIDANT IN TOTAL OXIDANTS









               THERMODYNAMIC EQUILIBRIUM PROPERTIES AT ASSIGNED

                           TEMPERATURE AND PRESSURE

 CASE =                

             REACTANT                    WT FRACTION      ENERGY      TEMP
                                          (SEE NOTE)     KJ/KG-MOL      K  
 FUEL        H2                           1.0000000         0.000      0.000
 OXIDANT     H2                           1.0000000         0.000      0.000

 O/F=    1.00000  %FUEL= 50.000000  R,EQ.RATIO= 0.000000  PHI,EQ.RATIO=-1.000000

 THERMODYNAMIC PROPERTIES

 P, BAR           0.10000
 T, K              595.00
 RHO, KG/CU M    4.0749-3
 H, KJ/KG         4297.93
 U, KJ/KG         1843.87
 G, KJ/KG        -45872.2
 S, KJ/(KG)(K)    84.3195

 M, (1/n)           2.016
 (dLV/dLP)t      -0.99999
 (dLV/dLT)p        1.0000
 Cp, KJ/(KG)(K)   14.5413
 GAMMAs            1.3960
 SON VEL,M/SEC     1850.9

 TRANSPORT PROPERTIES (GASES ONLY)
   CONDUCTIVITY IN UNITS OF MILLIWATTS/(CM)(K)

 VISC,MILLIPOISE  0.14294

  WITH EQUILIBRIUM REACTIONS

 Cp, KJ/(KG)(K)   14.5413
 CONDUCTIVITY      3.0163
 PRANDTL NUMBER    0.6891

  WITH FROZEN REACTIONS

 Cp, KJ/(KG)(K)   14.5413
 CONDUCTIVITY      3.0163
 PRANDTL NUMBER    0.6891

 MASS FRACTIONS

 *H2              1.00000

  * THERMODYNAMIC PROPERTIES FITTED TO 20000.K

 NOTE. WEIGHT FRACTION OF FUEL IN TOTAL FUELS AND OF OXIDANT IN TOTAL OXIDANTS



  
