
 *******************************************************************************

         NASA-GLENN CHEMICAL EQUILIBRIUM PROGRAM CEA2, MAY 21, 2004
                   BY  BONNIE MCBRIDE AND SANFORD GORDON
      REFS: NASA RP-1311, PART I, 1994 AND NASA RP-1311, PART II, 1996

 *******************************************************************************



  prob tp ions
  p,bar= 0.11,0.12,0.132,0.148,0.165,0.18,0.2,0.225,0.25,0.28,0.31,0.35,0.39,0.44
 ,0.49
  t,k= 4550,4560,4570,4580,4590,4600,4610,4620,4630,4640,4650,4660,4670,4680,4690
  
  
  reac
  fuel H2                wt%=100.0000
  oxid H2                wt%=100.0000
  
  output short
  
  output massf
  
  output siunits
  
  output transport
  
 end





               THERMODYNAMIC EQUILIBRIUM PROPERTIES AT ASSIGNED

                           TEMPERATURE AND PRESSURE

 CASE =                

             REACTANT                    WT FRACTION      ENERGY      TEMP
                                          (SEE NOTE)     KJ/KG-MOL      K  
 FUEL        H2                           1.0000000         0.000      0.000
 OXIDANT     H2                           1.0000000         0.000      0.000

 O/F=    1.00000  %FUEL= 50.000000  R,EQ.RATIO= 0.000000  PHI,EQ.RATIO=-1.000000

 THERMODYNAMIC PROPERTIES

 P, BAR           0.11000  0.11000  0.11000  0.11000  0.11000  0.11000  0.11000  0.11000
 T, K             4550.00  4560.00  4570.00  4580.00  4590.00  4600.00  4610.00  4620.00
 RHO, KG/CU M    2.9538-4 2.9468-4 2.9397-4 2.9327-4 2.9258-4 2.9189-4 2.9121-4 2.9053-4
 H, KJ/KG        300367.2 300667.3 300964.2 301258.4 301550.1 301839.2 302126.0 302410.4
 U, KJ/KG        263127.6 263338.2 263545.8 263750.9 263953.7 264154.1 264352.3 264548.3
 G, KJ/KG       -552753.3-554627.6-556503.5-558380.2-560257.4-562135.3-564013.8-565893.0
 S, KJ/(KG)(K)   187.4990 187.5647 187.6297 187.6940 187.7576 187.8205 187.8828 187.9444

 M, (1/n)           1.016    1.016    1.015    1.015    1.015    1.015    1.015    1.015
 (dLV/dLP)t      -1.00770 -1.00750 -1.00731 -1.00712 -1.00694 -1.00677 -1.00660 -1.00643
 (dLV/dLT)p        1.0945   1.0919   1.0893   1.0869   1.0845   1.0822   1.0800   1.0778
 Cp, KJ/(KG)(K)   30.1032  29.8243  29.5540  29.2925  29.0394  28.7946  28.5576  28.3282
 GAMMAs            1.4662   1.4700   1.4737   1.4774   1.4810   1.4846   1.4882   1.4917
 SON VEL,M/SEC     7389.3   7407.6   7425.9   7444.0   7462.0   7479.9   7497.6   7515.3

 TRANSPORT PROPERTIES (GASES ONLY)
   CONDUCTIVITY IN UNITS OF MILLIWATTS/(CM)(K)

 VISC,MILLIPOISE  0.51047  0.51117  0.51188  0.51260  0.51331  0.51404  0.51476  0.51550

  WITH EQUILIBRIUM REACTIONS

 Cp, KJ/(KG)(K)   30.0927  29.8243  29.5540  29.2925  29.0394  28.7946  28.5576  28.3282
 CONDUCTIVITY     24.4742  24.2549  24.0420  23.8364  23.6380  23.4465  23.2618  23.0835
 PRANDTL NUMBER    0.6277   0.6285   0.6292   0.6299   0.6306   0.6313   0.6320   0.6326

  WITH FROZEN REACTIONS

 Cp, KJ/(KG)(K)   20.6109  20.6113  20.6117  20.6121  20.6125  20.6129  20.6132  20.6136
 CONDUCTIVITY     15.6765  15.7007  15.7254  15.7502  15.7750  15.7999  15.8248  15.8498
 PRANDTL NUMBER    0.6712   0.6710   0.6709   0.6708   0.6707   0.6706   0.6705   0.6704

 MASS FRACTIONS

 *H               0.98436  0.98477  0.98516  0.98554  0.98591  0.98627  0.98662  0.98696
 *H2              0.01564  0.01523  0.01484  0.01446  0.01409  0.01373  0.01338  0.01304

  * THERMODYNAMIC PROPERTIES FITTED TO 20000.K

 NOTE. WEIGHT FRACTION OF FUEL IN TOTAL FUELS AND OF OXIDANT IN TOTAL OXIDANTS









               THERMODYNAMIC EQUILIBRIUM PROPERTIES AT ASSIGNED

                           TEMPERATURE AND PRESSURE

 CASE =                

             REACTANT                    WT FRACTION      ENERGY      TEMP
                                          (SEE NOTE)     KJ/KG-MOL      K  
 FUEL        H2                           1.0000000         0.000      0.000
 OXIDANT     H2                           1.0000000         0.000      0.000

 O/F=    1.00000  %FUEL= 50.000000  R,EQ.RATIO= 0.000000  PHI,EQ.RATIO=-1.000000

 THERMODYNAMIC PROPERTIES

 P, BAR           0.11000  0.11000  0.11000  0.11000  0.11000  0.11000  0.11000  0.12000
 T, K             4630.00  4640.00  4650.00  4660.00  4670.00  4680.00  4690.00  4550.00
 RHO, KG/CU M    2.8985-4 2.8918-4 2.8851-4 2.8785-4 2.8719-4 2.8654-4 2.8589-4 3.2246-4
 H, KJ/KG        302692.6 302972.5 303250.4 303526.2 303800.1 304072.0 304342.0 300048.5
 U, KJ/KG        264742.2 264934.1 265124.0 265312.0 265498.2 265682.6 265865.3 262834.9
 G, KJ/KG       -567772.7-569653.1-571534.0-573415.6-575297.7-577180.4-579063.8-549513.1
 S, KJ/(KG)(K)   188.0055 188.0659 188.1257 188.1849 188.2436 188.3018 188.3594 186.7168

 M, (1/n)           1.014    1.014    1.014    1.014    1.014    1.014    1.013    1.017
 (dLV/dLP)t      -1.00627 -1.00612 -1.00597 -1.00582 -1.00568 -1.00554 -1.00540 -1.00837
 (dLV/dLT)p        1.0757   1.0737   1.0717   1.0698   1.0679   1.0661   1.0644   1.1027
 Cp, KJ/(KG)(K)   28.1062  27.8913  27.6833  27.4819  27.2869  27.0982  26.9154  30.9205
 GAMMAs            1.4952   1.4986   1.5020   1.5053   1.5085   1.5118   1.5149   1.4561
 SON VEL,M/SEC     7532.7   7550.1   7567.3   7584.4   7601.3   7618.1   7634.8   7361.3

 TRANSPORT PROPERTIES (GASES ONLY)
   CONDUCTIVITY IN UNITS OF MILLIWATTS/(CM)(K)

 VISC,MILLIPOISE  0.51623  0.51697  0.51771  0.51846  0.51921  0.51996  0.52072  0.51117

  WITH EQUILIBRIUM REACTIONS

 Cp, KJ/(KG)(K)   28.1062  27.8913  27.6833  27.4819  27.2869  27.0982  26.9154  30.9205
 CONDUCTIVITY     22.9115  22.7455  22.5854  22.4310  22.2821  22.1384  21.9999  25.2534
 PRANDTL NUMBER    0.6333   0.6339   0.6346   0.6352   0.6358   0.6364   0.6371   0.6259

  WITH FROZEN REACTIONS

 Cp, KJ/(KG)(K)   20.6139  20.6142  20.6145  20.6148  20.6151  20.6154  20.6157  20.6098
 CONDUCTIVITY     15.8748  15.8999  15.9251  15.9503  15.9756  16.0009  16.0262  15.6880
 PRANDTL NUMBER    0.6703   0.6703   0.6702   0.6701   0.6700   0.6699   0.6698   0.6715

 MASS FRACTIONS

 *H               0.98729  0.98761  0.98792  0.98822  0.98852  0.98880  0.98908  0.98298
 *H2              0.01271  0.01239  0.01208  0.01177  0.01148  0.01120  0.01092  0.01702

  * THERMODYNAMIC PROPERTIES FITTED TO 20000.K

 NOTE. WEIGHT FRACTION OF FUEL IN TOTAL FUELS AND OF OXIDANT IN TOTAL OXIDANTS









               THERMODYNAMIC EQUILIBRIUM PROPERTIES AT ASSIGNED

                           TEMPERATURE AND PRESSURE

 CASE =                

             REACTANT                    WT FRACTION      ENERGY      TEMP
                                          (SEE NOTE)     KJ/KG-MOL      K  
 FUEL        H2                           1.0000000         0.000      0.000
 OXIDANT     H2                           1.0000000         0.000      0.000

 O/F=    1.00000  %FUEL= 50.000000  R,EQ.RATIO= 0.000000  PHI,EQ.RATIO=-1.000000

 THERMODYNAMIC PROPERTIES

 P, BAR           0.12000  0.12000  0.12000  0.12000  0.12000  0.12000  0.12000  0.12000
 T, K             4560.00  4570.00  4580.00  4590.00  4600.00  4610.00  4620.00  4630.00
 RHO, KG/CU M    3.2168-4 3.2091-4 3.2014-4 3.1938-4 3.1862-4 3.1787-4 3.1712-4 3.1638-4
 H, KJ/KG        300356.2 300660.9 300962.8 301261.8 301558.2 301851.9 302143.1 302431.9
 U, KJ/KG        263052.5 263267.4 263479.5 263689.1 263896.2 264100.8 264303.1 264503.1
 G, KJ/KG       -551380.6-553248.8-555117.6-556987.1-558857.3-560728.0-562599.5-564471.5
 S, KJ/(KG)(K)   186.7844 186.8511 186.9171 186.9823 187.0468 187.1106 187.1737 187.2362

 M, (1/n)           1.016    1.016    1.016    1.016    1.016    1.015    1.015    1.015
 (dLV/dLP)t      -1.00815 -1.00795 -1.00775 -1.00755 -1.00736 -1.00718 -1.00700 -1.00682
 (dLV/dLT)p        1.0999   1.0971   1.0945   1.0919   1.0894   1.0870   1.0846   1.0823
 Cp, KJ/(KG)(K)   30.6181  30.3254  30.0422  29.7680  29.5027  29.2459  28.9973  28.7566
 GAMMAs            1.4600   1.4638   1.4675   1.4712   1.4749   1.4785   1.4821   1.4856
 SON VEL,M/SEC     7379.8   7398.3   7416.6   7434.9   7453.0   7471.0   7488.8   7506.6

 TRANSPORT PROPERTIES (GASES ONLY)
   CONDUCTIVITY IN UNITS OF MILLIWATTS/(CM)(K)

 VISC,MILLIPOISE  0.51186  0.51256  0.51326  0.51396  0.51467  0.51538  0.51610  0.51682

  WITH EQUILIBRIUM REACTIONS

 Cp, KJ/(KG)(K)   30.6181  30.3254  30.0422  29.7680  29.5027  29.2459  28.9973  28.7566
 CONDUCTIVITY     25.0119  24.7788  24.5536  24.3362  24.1262  23.9235  23.7277  23.5388
 PRANDTL NUMBER    0.6266   0.6273   0.6280   0.6287   0.6294   0.6300   0.6307   0.6314

  WITH FROZEN REACTIONS

 Cp, KJ/(KG)(K)   20.6103  20.6107  20.6112  20.6116  20.6120  20.6124  20.6128  20.6131
 CONDUCTIVITY     15.7123  15.7367  15.7612  15.7858  15.8104  15.8351  15.8599  15.8847
 PRANDTL NUMBER    0.6714   0.6713   0.6712   0.6711   0.6710   0.6709   0.6708   0.6707

 MASS FRACTIONS

 *H               0.98342  0.98384  0.98426  0.98466  0.98505  0.98543  0.98580  0.98616
 *H2              0.01658  0.01615  0.01574  0.01534  0.01495  0.01457  0.01420  0.01384

  * THERMODYNAMIC PROPERTIES FITTED TO 20000.K

 NOTE. WEIGHT FRACTION OF FUEL IN TOTAL FUELS AND OF OXIDANT IN TOTAL OXIDANTS









               THERMODYNAMIC EQUILIBRIUM PROPERTIES AT ASSIGNED

                           TEMPERATURE AND PRESSURE

 CASE =                

             REACTANT                    WT FRACTION      ENERGY      TEMP
                                          (SEE NOTE)     KJ/KG-MOL      K  
 FUEL        H2                           1.0000000         0.000      0.000
 OXIDANT     H2                           1.0000000         0.000      0.000

 O/F=    1.00000  %FUEL= 50.000000  R,EQ.RATIO= 0.000000  PHI,EQ.RATIO=-1.000000

 THERMODYNAMIC PROPERTIES

 P, BAR           0.12000  0.12000  0.12000  0.12000  0.12000  0.12000  0.13200  0.13200
 T, K             4640.00  4650.00  4660.00  4670.00  4680.00  4690.00  4550.00  4560.00
 RHO, KG/CU M    3.1565-4 3.1491-4 3.1419-4 3.1346-4 3.1274-4 3.1203-4 3.5501-4 3.5414-4
 H, KJ/KG        302718.3 303002.4 303284.2 303564.0 303841.6 304117.3 299667.4 299984.6
 U, KJ/KG        264700.9 264896.6 265090.2 265281.8 265471.5 265659.4 262484.8 262711.3
 G, KJ/KG       -566344.2-568217.5-570091.4-571965.9-573841.0-575716.6-545967.7-547826.6
 S, KJ/(KG)(K)   187.2979 187.3591 187.4197 187.4796 187.5390 187.5978 185.8539 185.9235

 M, (1/n)           1.015    1.015    1.014    1.014    1.014    1.014    1.017    1.017
 (dLV/dLP)t      -1.00666 -1.00649 -1.00633 -1.00618 -1.00602 -1.00588 -1.00917 -1.00893
 (dLV/dLT)p        1.0801   1.0780   1.0759   1.0739   1.0719   1.0700   1.1125   1.1094
 Cp, KJ/(KG)(K)   28.5236  28.2980  28.0795  27.8680  27.6632  27.4648  31.8917  31.5621
 GAMMAs            1.4891   1.4926   1.4960   1.4994   1.5027   1.5060   1.4450   1.4489
 SON VEL,M/SEC     7524.2   7541.6   7559.0   7576.2   7593.3   7610.2   7330.0   7348.7

 TRANSPORT PROPERTIES (GASES ONLY)
   CONDUCTIVITY IN UNITS OF MILLIWATTS/(CM)(K)

 VISC,MILLIPOISE  0.51755  0.51828  0.51901  0.51975  0.52049  0.52123  0.51202  0.51269

  WITH EQUILIBRIUM REACTIONS

 Cp, KJ/(KG)(K)   28.5236  28.2980  28.0795  27.8680  27.6632  27.4648  31.8917  31.5621
 CONDUCTIVITY     23.3564  23.1803  23.0103  22.8463  22.6880  22.5352  26.1795  25.9135
 PRANDTL NUMBER    0.6320   0.6327   0.6333   0.6340   0.6346   0.6353   0.6237   0.6244

  WITH FROZEN REACTIONS

 Cp, KJ/(KG)(K)   20.6135  20.6138  20.6141  20.6145  20.6148  20.6151  20.6086  20.6091
 CONDUCTIVITY     15.9096  15.9346  15.9596  15.9846  16.0097  16.0349  15.7021  15.7262
 PRANDTL NUMBER    0.6706   0.6705   0.6704   0.6703   0.6702   0.6701   0.6720   0.6719

 MASS FRACTIONS

 *H               0.98651  0.98684  0.98717  0.98749  0.98780  0.98810  0.98132  0.98180
 *H2              0.01349  0.01315  0.01282  0.01251  0.01220  0.01189  0.01868  0.01820

  * THERMODYNAMIC PROPERTIES FITTED TO 20000.K

 NOTE. WEIGHT FRACTION OF FUEL IN TOTAL FUELS AND OF OXIDANT IN TOTAL OXIDANTS









               THERMODYNAMIC EQUILIBRIUM PROPERTIES AT ASSIGNED

                           TEMPERATURE AND PRESSURE

 CASE =                

             REACTANT                    WT FRACTION      ENERGY      TEMP
                                          (SEE NOTE)     KJ/KG-MOL      K  
 FUEL        H2                           1.0000000         0.000      0.000
 OXIDANT     H2                           1.0000000         0.000      0.000

 O/F=    1.00000  %FUEL= 50.000000  R,EQ.RATIO= 0.000000  PHI,EQ.RATIO=-1.000000

 THERMODYNAMIC PROPERTIES

 P, BAR           0.13200  0.13200  0.13200  0.13200  0.13200  0.13200  0.13200  0.13200
 T, K             4570.00  4580.00  4590.00  4600.00  4610.00  4620.00  4630.00  4640.00
 RHO, KG/CU M    3.5328-4 3.5243-4 3.5158-4 3.5074-4 3.4991-4 3.4908-4 3.4826-4 3.4744-4
 H, KJ/KG        300298.7 300609.5 300917.4 301222.3 301524.3 301823.6 302120.2 302414.3
 U, KJ/KG        262934.7 263155.3 263373.0 263587.9 263800.3 264010.0 264217.3 264422.2
 G, KJ/KG       -549686.2-551546.4-553407.4-555269.0-557131.3-558994.2-560857.7-562721.9
 S, KJ/(KG)(K)   185.9923 186.0603 186.1274 186.1938 186.2593 186.3242 186.3883 186.4518

 M, (1/n)           1.017    1.017    1.016    1.016    1.016    1.016    1.016    1.015
 (dLV/dLP)t      -1.00871 -1.00849 -1.00828 -1.00807 -1.00787 -1.00767 -1.00748 -1.00730
 (dLV/dLT)p        1.1064   1.1035   1.1007   1.0980   1.0953   1.0927   1.0903   1.0878
 Cp, KJ/(KG)(K)   31.2430  30.9341  30.6351  30.3456  30.0653  29.7940  29.5312  29.2768
 GAMMAs            1.4527   1.4565   1.4603   1.4640   1.4677   1.4714   1.4750   1.4786
 SON VEL,M/SEC     7367.4   7385.9   7404.4   7422.7   7440.9   7459.1   7477.0   7494.9

 TRANSPORT PROPERTIES (GASES ONLY)
   CONDUCTIVITY IN UNITS OF MILLIWATTS/(CM)(K)

 VISC,MILLIPOISE  0.51336  0.51404  0.51473  0.51542  0.51612  0.51682  0.51752  0.51823

  WITH EQUILIBRIUM REACTIONS

 Cp, KJ/(KG)(K)   31.2430  30.9341  30.6351  30.3456  30.0653  29.7940  29.5312  29.2768
 CONDUCTIVITY     25.6565  25.4081  25.1682  24.9363  24.7123  24.4959  24.2868  24.0849
 PRANDTL NUMBER    0.6251   0.6258   0.6265   0.6272   0.6279   0.6286   0.6293   0.6299

  WITH FROZEN REACTIONS

 Cp, KJ/(KG)(K)   20.6096  20.6101  20.6105  20.6110  20.6114  20.6118  20.6122  20.6126
 CONDUCTIVITY     15.7503  15.7745  15.7987  15.8231  15.8475  15.8720  15.8965  15.9212
 PRANDTL NUMBER    0.6717   0.6716   0.6715   0.6714   0.6713   0.6712   0.6710   0.6709

 MASS FRACTIONS

 *H               0.98227  0.98273  0.98317  0.98359  0.98401  0.98441  0.98481  0.98519
 *H2              0.01773  0.01727  0.01683  0.01640  0.01599  0.01558  0.01519  0.01481

  * THERMODYNAMIC PROPERTIES FITTED TO 20000.K

 NOTE. WEIGHT FRACTION OF FUEL IN TOTAL FUELS AND OF OXIDANT IN TOTAL OXIDANTS









               THERMODYNAMIC EQUILIBRIUM PROPERTIES AT ASSIGNED

                           TEMPERATURE AND PRESSURE

 CASE =                

             REACTANT                    WT FRACTION      ENERGY      TEMP
                                          (SEE NOTE)     KJ/KG-MOL      K  
 FUEL        H2                           1.0000000         0.000      0.000
 OXIDANT     H2                           1.0000000         0.000      0.000

 O/F=    1.00000  %FUEL= 50.000000  R,EQ.RATIO= 0.000000  PHI,EQ.RATIO=-1.000000

 THERMODYNAMIC PROPERTIES

 P, BAR           0.13200  0.13200  0.13200  0.13200  0.13200  0.14800  0.14800  0.14800
 T, K             4650.00  4660.00  4670.00  4680.00  4690.00  4550.00  4560.00  4570.00
 RHO, KG/CU M    3.4663-4 3.4582-4 3.4502-4 3.4422-4 3.4343-4 3.9848-4 3.9750-4 3.9652-4
 H, KJ/KG        302705.8 302994.9 303281.7 303566.1 303848.4 299162.2 299492.1 299818.4
 U, KJ/KG        264624.7 264825.0 265023.1 265219.1 265413.1 262020.8 262259.0 262493.7
 G, KJ/KG       -564586.8-566452.2-568318.3-570185.0-572052.3-541716.0-543564.4-545413.6
 S, KJ/(KG)(K)   186.5145 186.5766 186.6381 186.6990 186.7592 184.8084 184.8808 184.9523

 M, (1/n)           1.015    1.015    1.015    1.015    1.015    1.019    1.018    1.018
 (dLV/dLP)t      -1.00712 -1.00694 -1.00677 -1.00661 -1.00645 -1.01022 -1.00996 -1.00971
 (dLV/dLT)p        1.0855   1.0832   1.0810   1.0789   1.0768   1.1254   1.1220   1.1187
 Cp, KJ/(KG)(K)   29.0304  28.7917  28.5606  28.3368  28.1200  33.1714  32.8063  32.4528
 GAMMAs            1.4821   1.4856   1.4891   1.4925   1.4958   1.4315   1.4354   1.4393
 SON VEL,M/SEC     7512.7   7530.3   7547.8   7565.1   7582.4   7291.7   7310.7   7329.5

 TRANSPORT PROPERTIES (GASES ONLY)
   CONDUCTIVITY IN UNITS OF MILLIWATTS/(CM)(K)

 VISC,MILLIPOISE  0.51895  0.51967  0.52039  0.52112  0.52185  0.51314  0.51378  0.51443

  WITH EQUILIBRIUM REACTIONS

 Cp, KJ/(KG)(K)   29.0304  28.7917  28.5606  28.3368  28.1200  33.1714  32.8063  32.4528
 CONDUCTIVITY     23.8898  23.7014  23.5195  23.3438  23.1741  27.4024  27.1043  26.8160
 PRANDTL NUMBER    0.6306   0.6313   0.6319   0.6326   0.6332   0.6212   0.6219   0.6226

  WITH FROZEN REACTIONS

 Cp, KJ/(KG)(K)   20.6130  20.6133  20.6137  20.6140  20.6143  20.6069  20.6075  20.6080
 CONDUCTIVITY     15.9459  15.9706  15.9954  16.0203  16.0452  15.7209  15.7445  15.7682
 PRANDTL NUMBER    0.6708   0.6707   0.6706   0.6705   0.6704   0.6726   0.6725   0.6723

 MASS FRACTIONS

 *H               0.98556  0.98592  0.98627  0.98661  0.98694  0.97913  0.97966  0.98019
 *H2              0.01444  0.01408  0.01373  0.01339  0.01306  0.02087  0.02033  0.01981

  * THERMODYNAMIC PROPERTIES FITTED TO 20000.K

 NOTE. WEIGHT FRACTION OF FUEL IN TOTAL FUELS AND OF OXIDANT IN TOTAL OXIDANTS









               THERMODYNAMIC EQUILIBRIUM PROPERTIES AT ASSIGNED

                           TEMPERATURE AND PRESSURE

 CASE =                

             REACTANT                    WT FRACTION      ENERGY      TEMP
                                          (SEE NOTE)     KJ/KG-MOL      K  
 FUEL        H2                           1.0000000         0.000      0.000
 OXIDANT     H2                           1.0000000         0.000      0.000

 O/F=    1.00000  %FUEL= 50.000000  R,EQ.RATIO= 0.000000  PHI,EQ.RATIO=-1.000000

 THERMODYNAMIC PROPERTIES

 P, BAR           0.14800  0.14800  0.14800  0.14800  0.14800  0.14800  0.14800  0.14800
 T, K             4580.00  4590.00  4600.00  4610.00  4620.00  4630.00  4640.00  4650.00
 RHO, KG/CU M    3.9555-4 3.9459-4 3.9364-4 3.9270-4 3.9176-4 3.9082-4 3.8990-4 3.8898-4
 H, KJ/KG        300141.2 300460.6 300776.8 301089.8 301399.7 301706.7 302010.9 302312.2
 U, KJ/KG        262725.3 262953.7 263179.1 263401.6 263621.2 263838.1 264052.3 264263.9
 G, KJ/KG       -547263.4-549114.0-550965.3-552817.2-554669.9-556523.2-558377.1-560231.7
 S, KJ/(KG)(K)   185.0228 185.0925 185.1613 185.2293 185.2965 185.3628 185.4284 185.4933

 M, (1/n)           1.018    1.018    1.017    1.017    1.017    1.017    1.016    1.016
 (dLV/dLP)t      -1.00947 -1.00923 -1.00900 -1.00878 -1.00856 -1.00835 -1.00814 -1.00794
 (dLV/dLT)p        1.1154   1.1123   1.1093   1.1063   1.1035   1.1007   1.0980   1.0954
 Cp, KJ/(KG)(K)   32.1104  31.7789  31.4579  31.1470  30.8459  30.5542  30.2717  29.9981
 GAMMAs            1.4432   1.4470   1.4508   1.4545   1.4582   1.4619   1.4656   1.4692
 SON VEL,M/SEC     7348.3   7366.9   7385.5   7403.9   7422.3   7440.5   7458.7   7476.7

 TRANSPORT PROPERTIES (GASES ONLY)
   CONDUCTIVITY IN UNITS OF MILLIWATTS/(CM)(K)

 VISC,MILLIPOISE  0.51509  0.51575  0.51642  0.51709  0.51777  0.51845  0.51914  0.51984

  WITH EQUILIBRIUM REACTIONS

 Cp, KJ/(KG)(K)   32.1104  31.7789  31.4579  31.1470  30.8459  30.5542  30.2717  29.9981
 CONDUCTIVITY     26.5372  26.2677  26.0072  25.7553  25.5117  25.2763  25.0487  24.8288
 PRANDTL NUMBER    0.6233   0.6240   0.6247   0.6253   0.6260   0.6267   0.6274   0.6281

  WITH FROZEN REACTIONS

 Cp, KJ/(KG)(K)   20.6086  20.6091  20.6096  20.6101  20.6105  20.6110  20.6114  20.6118
 CONDUCTIVITY     15.7920  15.8159  15.8398  15.8639  15.8880  15.9122  15.9365  15.9609
 PRANDTL NUMBER    0.6722   0.6721   0.6719   0.6718   0.6717   0.6716   0.6714   0.6713

 MASS FRACTIONS

 *H               0.98069  0.98118  0.98166  0.98212  0.98258  0.98301  0.98344  0.98385
 *H2              0.01931  0.01881  0.01834  0.01787  0.01742  0.01699  0.01656  0.01615

  * THERMODYNAMIC PROPERTIES FITTED TO 20000.K

 NOTE. WEIGHT FRACTION OF FUEL IN TOTAL FUELS AND OF OXIDANT IN TOTAL OXIDANTS









               THERMODYNAMIC EQUILIBRIUM PROPERTIES AT ASSIGNED

                           TEMPERATURE AND PRESSURE

 CASE =                

             REACTANT                    WT FRACTION      ENERGY      TEMP
                                          (SEE NOTE)     KJ/KG-MOL      K  
 FUEL        H2                           1.0000000         0.000      0.000
 OXIDANT     H2                           1.0000000         0.000      0.000

 O/F=    1.00000  %FUEL= 50.000000  R,EQ.RATIO= 0.000000  PHI,EQ.RATIO=-1.000000

 THERMODYNAMIC PROPERTIES

 P, BAR           0.14800  0.14800  0.14800  0.14800  0.16500  0.16500  0.16500  0.16500
 T, K             4660.00  4670.00  4680.00  4690.00  4550.00  4560.00  4570.00  4580.00
 RHO, KG/CU M    3.8807-4 3.8716-4 3.8626-4 3.8536-4 4.4477-4 4.4366-4 4.4256-4 4.4147-4
 H, KJ/KG        302610.9 302906.9 303200.4 303491.5 298629.1 298972.2 299311.4 299646.7
 U, KJ/KG        264473.0 264679.7 264884.0 265086.1 261531.2 261781.6 262028.3 262271.4
 G, KJ/KG       -562087.0-563942.9-565799.4-567656.6-537679.8-539518.2-541357.4-543197.3
 S, KJ/(KG)(K)   185.5575 185.6209 185.6837 185.7458 183.8042 183.8795 183.9538 184.0271

 M, (1/n)           1.016    1.016    1.016    1.015    1.020    1.019    1.019    1.019
 (dLV/dLP)t      -1.00775 -1.00756 -1.00738 -1.00720 -1.01133 -1.01104 -1.01077 -1.01050
 (dLV/dLT)p        1.0929   1.0905   1.0881   1.0858   1.1390   1.1352   1.1315   1.1280
 Cp, KJ/(KG)(K)   29.7330  29.4762  29.2274  28.9864  34.5122  34.1105  33.7213  33.3443
 GAMMAs            1.4728   1.4764   1.4799   1.4833   1.4187   1.4226   1.4265   1.4304
 SON VEL,M/SEC     7494.6   7512.4   7530.1   7547.7   7254.8   7273.8   7292.8   7311.7

 TRANSPORT PROPERTIES (GASES ONLY)
   CONDUCTIVITY IN UNITS OF MILLIWATTS/(CM)(K)

 VISC,MILLIPOISE  0.52054  0.52124  0.52195  0.52266  0.51431  0.51493  0.51556  0.51619

  WITH EQUILIBRIUM REACTIONS

 Cp, KJ/(KG)(K)   29.7330  29.4762  29.2274  28.9864  34.5122  34.1105  33.7213  33.3443
 CONDUCTIVITY     24.6162  24.4107  24.2121  24.0202  28.6868  28.3553  28.0345  27.7242
 PRANDTL NUMBER    0.6287   0.6294   0.6301   0.6307   0.6188   0.6194   0.6201   0.6208

  WITH FROZEN REACTIONS

 Cp, KJ/(KG)(K)   20.6122  20.6126  20.6130  20.6133  20.6052  20.6058  20.6064  20.6070
 CONDUCTIVITY     15.9853  16.0098  16.0343  16.0590  15.7407  15.7639  15.7872  15.8105
 PRANDTL NUMBER    0.6712   0.6711   0.6710   0.6709   0.6733   0.6731   0.6729   0.6728

 MASS FRACTIONS

 *H               0.98425  0.98464  0.98502  0.98539  0.97681  0.97741  0.97798  0.97855
 *H2              0.01575  0.01536  0.01498  0.01461  0.02319  0.02259  0.02201  0.02145

  * THERMODYNAMIC PROPERTIES FITTED TO 20000.K

 NOTE. WEIGHT FRACTION OF FUEL IN TOTAL FUELS AND OF OXIDANT IN TOTAL OXIDANTS









               THERMODYNAMIC EQUILIBRIUM PROPERTIES AT ASSIGNED

                           TEMPERATURE AND PRESSURE

 CASE =                

             REACTANT                    WT FRACTION      ENERGY      TEMP
                                          (SEE NOTE)     KJ/KG-MOL      K  
 FUEL        H2                           1.0000000         0.000      0.000
 OXIDANT     H2                           1.0000000         0.000      0.000

 O/F=    1.00000  %FUEL= 50.000000  R,EQ.RATIO= 0.000000  PHI,EQ.RATIO=-1.000000

 THERMODYNAMIC PROPERTIES

 P, BAR           0.16500  0.16500  0.16500  0.16500  0.16500  0.16500  0.16500  0.16500
 T, K             4590.00  4600.00  4610.00  4620.00  4630.00  4640.00  4650.00  4660.00
 RHO, KG/CU M    4.4038-4 4.3931-4 4.3824-4 4.3718-4 4.3613-4 4.3509-4 4.3405-4 4.3303-4
 H, KJ/KG        299978.3 300306.3 300630.9 300952.0 301269.9 301584.6 301896.3 302205.0
 U, KJ/KG        262511.1 262747.4 262980.6 263210.5 263437.5 263661.5 263882.6 264101.0
 G, KJ/KG       -545037.9-546879.3-548721.3-550564.1-552407.5-554251.7-556096.5-557942.0
 S, KJ/(KG)(K)   184.0994 184.1708 184.2413 184.3108 184.3796 184.4475 184.5146 184.5809

 M, (1/n)           1.019    1.018    1.018    1.018    1.018    1.017    1.017    1.017
 (dLV/dLP)t      -1.01024 -1.00998 -1.00974 -1.00950 -1.00926 -1.00904 -1.00882 -1.00860
 (dLV/dLT)p        1.1245   1.1212   1.1179   1.1148   1.1117   1.1088   1.1059   1.1031
 Cp, KJ/(KG)(K)   32.9792  32.6254  32.2827  31.9507  31.6290  31.3174  31.0154  30.7228
 GAMMAs            1.4342   1.4381   1.4419   1.4456   1.4494   1.4531   1.4568   1.4604
 SON VEL,M/SEC     7330.5   7349.3   7367.9   7386.5   7404.9   7423.3   7441.6   7459.7

 TRANSPORT PROPERTIES (GASES ONLY)
   CONDUCTIVITY IN UNITS OF MILLIWATTS/(CM)(K)

 VISC,MILLIPOISE  0.51682  0.51747  0.51812  0.51878  0.51944  0.52011  0.52078  0.52146

  WITH EQUILIBRIUM REACTIONS

 Cp, KJ/(KG)(K)   32.9792  32.6254  32.2827  31.9507  31.6290  31.3174  31.0154  30.7228
 CONDUCTIVITY     27.4239  27.1335  26.8525  26.5807  26.3178  26.0635  25.8176  25.5797
 PRANDTL NUMBER    0.6215   0.6222   0.6229   0.6236   0.6243   0.6249   0.6256   0.6263

  WITH FROZEN REACTIONS

 Cp, KJ/(KG)(K)   20.6076  20.6081  20.6087  20.6092  20.6097  20.6102  20.6106  20.6111
 CONDUCTIVITY     15.8340  15.8576  15.8812  15.9050  15.9288  15.9527  15.9767  16.0008
 PRANDTL NUMBER    0.6726   0.6725   0.6724   0.6722   0.6721   0.6720   0.6718   0.6717

 MASS FRACTIONS

 *H               0.97909  0.97962  0.98013  0.98063  0.98112  0.98159  0.98205  0.98249
 *H2              0.02091  0.02038  0.01987  0.01937  0.01888  0.01841  0.01795  0.01751

  * THERMODYNAMIC PROPERTIES FITTED TO 20000.K

 NOTE. WEIGHT FRACTION OF FUEL IN TOTAL FUELS AND OF OXIDANT IN TOTAL OXIDANTS









               THERMODYNAMIC EQUILIBRIUM PROPERTIES AT ASSIGNED

                           TEMPERATURE AND PRESSURE

 CASE =                

             REACTANT                    WT FRACTION      ENERGY      TEMP
                                          (SEE NOTE)     KJ/KG-MOL      K  
 FUEL        H2                           1.0000000         0.000      0.000
 OXIDANT     H2                           1.0000000         0.000      0.000

 O/F=    1.00000  %FUEL= 50.000000  R,EQ.RATIO= 0.000000  PHI,EQ.RATIO=-1.000000

 THERMODYNAMIC PROPERTIES

 P, BAR           0.16500  0.16500  0.16500  0.18000  0.18000  0.18000  0.18000  0.18000
 T, K             4670.00  4680.00  4690.00  4550.00  4560.00  4570.00  4580.00  4590.00
 RHO, KG/CU M    4.3200-4 4.3099-4 4.2998-4 4.8570-4 4.8448-4 4.8326-4 4.8206-4 4.8087-4
 H, KJ/KG        302510.8 302813.8 303114.1 298161.9 298516.5 298866.9 299213.1 299555.3
 U, KJ/KG        264316.7 264529.8 264740.4 261102.1 261363.1 261620.2 261873.4 262122.9
 G, KJ/KG       -559788.1-561634.9-563482.3-534453.5-536283.8-538114.9-539946.7-541779.3
 S, KJ/(KG)(K)   184.6464 184.7113 184.7754 182.9924 183.0702 183.1470 183.2227 183.2973

 M, (1/n)           1.017    1.016    1.016    1.021    1.020    1.020    1.020    1.020
 (dLV/dLP)t      -1.00839 -1.00819 -1.00799 -1.01229 -1.01198 -1.01169 -1.01140 -1.01111
 (dLV/dLT)p        1.1004   1.0978   1.0952   1.1508   1.1467   1.1428   1.1389   1.1352
 Cp, KJ/(KG)(K)   30.4392  30.1644  29.8982  35.6795  35.2462  34.8264  34.4196  34.0254
 GAMMAs            1.4640   1.4676   1.4712   1.4085   1.4124   1.4163   1.4202   1.4240
 SON VEL,M/SEC     7477.8   7495.7   7513.6   7224.9   7244.1   7263.1   7282.1   7301.0

 TRANSPORT PROPERTIES (GASES ONLY)
   CONDUCTIVITY IN UNITS OF MILLIWATTS/(CM)(K)

 VISC,MILLIPOISE  0.52214  0.52283  0.52352  0.51534  0.51594  0.51654  0.51715  0.51777

  WITH EQUILIBRIUM REACTIONS

 Cp, KJ/(KG)(K)   30.4392  30.1644  29.8982  35.6795  35.2462  34.8264  34.4196  34.0254
 CONDUCTIVITY     25.3496  25.1271  24.9119  29.8075  29.4472  29.0984  28.7607  28.4339
 PRANDTL NUMBER    0.6270   0.6276   0.6283   0.6169   0.6175   0.6182   0.6189   0.6196

  WITH FROZEN REACTIONS

 Cp, KJ/(KG)(K)   20.6115  20.6119  20.6123  20.6036  20.6043  20.6050  20.6057  20.6063
 CONDUCTIVITY     16.0250  16.0492  16.0735  15.7581  15.7809  15.8038  15.8268  15.8499
 PRANDTL NUMBER    0.6716   0.6715   0.6714   0.6738   0.6736   0.6735   0.6733   0.6731

 MASS FRACTIONS

 *H               0.98292  0.98334  0.98375  0.97478  0.97543  0.97605  0.97666  0.97725
 *H2              0.01708  0.01666  0.01625  0.02522  0.02457  0.02394  0.02334  0.02274

  * THERMODYNAMIC PROPERTIES FITTED TO 20000.K

 NOTE. WEIGHT FRACTION OF FUEL IN TOTAL FUELS AND OF OXIDANT IN TOTAL OXIDANTS









               THERMODYNAMIC EQUILIBRIUM PROPERTIES AT ASSIGNED

                           TEMPERATURE AND PRESSURE

 CASE =                

             REACTANT                    WT FRACTION      ENERGY      TEMP
                                          (SEE NOTE)     KJ/KG-MOL      K  
 FUEL        H2                           1.0000000         0.000      0.000
 OXIDANT     H2                           1.0000000         0.000      0.000

 O/F=    1.00000  %FUEL= 50.000000  R,EQ.RATIO= 0.000000  PHI,EQ.RATIO=-1.000000

 THERMODYNAMIC PROPERTIES

 P, BAR           0.18000  0.18000  0.18000  0.18000  0.18000  0.18000  0.18000  0.18000
 T, K             4600.00  4610.00  4620.00  4630.00  4640.00  4650.00  4660.00  4670.00
 RHO, KG/CU M    4.7968-4 4.7851-4 4.7734-4 4.7618-4 4.7503-4 4.7389-4 4.7276-4 4.7164-4
 H, KJ/KG        299893.7 300228.2 300559.2 300886.6 301210.6 301531.2 301848.7 302163.0
 U, KJ/KG        262368.8 262611.2 262850.2 263085.9 263318.5 263547.9 263774.4 263998.0
 G, KJ/KG       -543612.7-545446.7-547281.5-549117.0-550953.2-552790.2-554627.7-556466.0
 S, KJ/(KG)(K)   183.3709 183.4436 183.5153 183.5861 183.6560 183.7250 183.7932 183.8606

 M, (1/n)           1.019    1.019    1.019    1.018    1.018    1.018    1.018    1.017
 (dLV/dLP)t      -1.01084 -1.01057 -1.01031 -1.01006 -1.00982 -1.00958 -1.00935 -1.00912
 (dLV/dLT)p        1.1316   1.1281   1.1247   1.1214   1.1182   1.1151   1.1120   1.1091
 Cp, KJ/(KG)(K)   33.6435  33.2733  32.9147  32.5671  32.2302  31.9037  31.5873  31.2806
 GAMMAs            1.4279   1.4317   1.4355   1.4392   1.4430   1.4467   1.4504   1.4540
 SON VEL,M/SEC     7319.8   7338.6   7357.3   7375.9   7394.4   7412.8   7431.1   7449.4

 TRANSPORT PROPERTIES (GASES ONLY)
   CONDUCTIVITY IN UNITS OF MILLIWATTS/(CM)(K)

 VISC,MILLIPOISE  0.51839  0.51902  0.51966  0.52030  0.52095  0.52160  0.52226  0.52293

  WITH EQUILIBRIUM REACTIONS

 Cp, KJ/(KG)(K)   33.6435  33.2733  32.9147  32.5671  32.2302  31.9037  31.5873  31.2806
 CONDUCTIVITY     28.1176  27.8115  27.5152  27.2285  26.9510  26.6825  26.4227  26.1713
 PRANDTL NUMBER    0.6203   0.6209   0.6216   0.6223   0.6230   0.6237   0.6243   0.6250

  WITH FROZEN REACTIONS

 Cp, KJ/(KG)(K)   20.6069  20.6074  20.6080  20.6085  20.6091  20.6096  20.6100  20.6105
 CONDUCTIVITY     15.8731  15.8964  15.9198  15.9433  15.9670  15.9906  16.0144  16.0383
 PRANDTL NUMBER    0.6730   0.6728   0.6727   0.6725   0.6724   0.6723   0.6721   0.6720

 MASS FRACTIONS

 *H               0.97783  0.97838  0.97893  0.97945  0.97996  0.98046  0.98094  0.98141
 *H2              0.02217  0.02161  0.02107  0.02055  0.02003  0.01954  0.01905  0.01858

  * THERMODYNAMIC PROPERTIES FITTED TO 20000.K

 NOTE. WEIGHT FRACTION OF FUEL IN TOTAL FUELS AND OF OXIDANT IN TOTAL OXIDANTS









               THERMODYNAMIC EQUILIBRIUM PROPERTIES AT ASSIGNED

                           TEMPERATURE AND PRESSURE

 CASE =                

             REACTANT                    WT FRACTION      ENERGY      TEMP
                                          (SEE NOTE)     KJ/KG-MOL      K  
 FUEL        H2                           1.0000000         0.000      0.000
 OXIDANT     H2                           1.0000000         0.000      0.000

 O/F=    1.00000  %FUEL= 50.000000  R,EQ.RATIO= 0.000000  PHI,EQ.RATIO=-1.000000

 THERMODYNAMIC PROPERTIES

 P, BAR           0.18000  0.18000  0.20000  0.20000  0.20000  0.20000  0.20000  0.20000
 T, K             4680.00  4690.00  4550.00  4560.00  4570.00  4580.00  4590.00  4600.00
 RHO, KG/CU M    4.7052-4 4.6941-4 5.4040-4 5.3902-4 5.3766-4 5.3630-4 5.3495-4 5.3362-4
 H, KJ/KG        302474.3 302782.7 297543.5 297913.3 298278.3 298638.9 298995.1 299347.0
 U, KJ/KG        264218.8 264436.8 260534.0 260809.1 261079.8 261346.3 261608.7 261867.1
 G, KJ/KG       -558305.0-560144.6-530551.4-532371.8-534193.0-536015.0-537837.8-539661.4
 S, KJ/(KG)(K)   183.9272 183.9930 181.9989 182.0801 182.1600 182.2388 182.3165 182.3931

 M, (1/n)           1.017    1.017    1.022    1.022    1.021    1.021    1.021    1.020
 (dLV/dLP)t      -1.00890 -1.00869 -1.01356 -1.01323 -1.01290 -1.01258 -1.01227 -1.01197
 (dLV/dLT)p        1.1062   1.1035   1.1664   1.1619   1.1576   1.1534   1.1493   1.1453
 Cp, KJ/(KG)(K)   30.9833  30.6952  37.2132  36.7391  36.2795  35.8340  35.4021  34.9835
 GAMMAs            1.4577   1.4613   1.3963   1.4001   1.4040   1.4079   1.4117   1.4155
 SON VEL,M/SEC     7467.5   7485.5   7188.6   7207.7   7226.8   7245.9   7264.9   7283.8

 TRANSPORT PROPERTIES (GASES ONLY)
   CONDUCTIVITY IN UNITS OF MILLIWATTS/(CM)(K)

 VISC,MILLIPOISE  0.52360  0.52428  0.51670  0.51727  0.51784  0.51842  0.51901  0.51961

  WITH EQUILIBRIUM REACTIONS

 Cp, KJ/(KG)(K)   30.9833  30.6952  37.2132  36.7391  36.2795  35.8340  35.4021  34.9835
 CONDUCTIVITY     25.9280  25.6926  31.2838  30.8859  30.5006  30.1274  29.7659  29.4159
 PRANDTL NUMBER    0.6257   0.6264   0.6146   0.6153   0.6160   0.6166   0.6173   0.6180

  WITH FROZEN REACTIONS

 Cp, KJ/(KG)(K)   20.6110  20.6114  20.6016  20.6024  20.6031  20.6038  20.6045  20.6052
 CONDUCTIVITY     16.0622  16.0863  15.7811  15.8034  15.8258  15.8483  15.8709  15.8937
 PRANDTL NUMBER    0.6719   0.6718   0.6745   0.6743   0.6742   0.6740   0.6738   0.6736

 MASS FRACTIONS

 *H               0.98187  0.98231  0.97210  0.97281  0.97350  0.97417  0.97482  0.97545
 *H2              0.01813  0.01768  0.02790  0.02719  0.02650  0.02583  0.02518  0.02454

  * THERMODYNAMIC PROPERTIES FITTED TO 20000.K

 NOTE. WEIGHT FRACTION OF FUEL IN TOTAL FUELS AND OF OXIDANT IN TOTAL OXIDANTS









               THERMODYNAMIC EQUILIBRIUM PROPERTIES AT ASSIGNED

                           TEMPERATURE AND PRESSURE

 CASE =                

             REACTANT                    WT FRACTION      ENERGY      TEMP
                                          (SEE NOTE)     KJ/KG-MOL      K  
 FUEL        H2                           1.0000000         0.000      0.000
 OXIDANT     H2                           1.0000000         0.000      0.000

 O/F=    1.00000  %FUEL= 50.000000  R,EQ.RATIO= 0.000000  PHI,EQ.RATIO=-1.000000

 THERMODYNAMIC PROPERTIES

 P, BAR           0.20000  0.20000  0.20000  0.20000  0.20000  0.20000  0.20000  0.20000
 T, K             4610.00  4620.00  4630.00  4640.00  4650.00  4660.00  4670.00  4680.00
 RHO, KG/CU M    5.3230-4 5.3098-4 5.2968-4 5.2839-4 5.2711-4 5.2583-4 5.2457-4 5.2332-4
 H, KJ/KG        299694.8 300038.6 300378.5 300714.7 301047.2 301376.2 301701.8 302024.1
 U, KJ/KG        262121.7 262372.7 262620.0 262863.8 263104.2 263341.4 263575.3 263806.2
 G, KJ/KG       -541485.7-543310.7-545136.5-546963.1-548790.3-550618.3-552446.9-554276.3
 S, KJ/(KG)(K)   182.4686 182.5431 182.6166 182.6892 182.7608 182.8314 182.9012 182.9702

 M, (1/n)           1.020    1.020    1.020    1.019    1.019    1.019    1.018    1.018
 (dLV/dLP)t      -1.01168 -1.01139 -1.01112 -1.01085 -1.01059 -1.01033 -1.01008 -1.00984
 (dLV/dLT)p        1.1415   1.1377   1.1341   1.1306   1.1271   1.1238   1.1206   1.1175
 Cp, KJ/(KG)(K)   34.5777  34.1843  33.8030  33.4333  33.0748  32.7273  32.3904  32.0638
 GAMMAs            1.4193   1.4231   1.4269   1.4307   1.4344   1.4381   1.4418   1.4455
 SON VEL,M/SEC     7302.6   7321.4   7340.2   7358.8   7377.4   7395.9   7414.3   7432.6

 TRANSPORT PROPERTIES (GASES ONLY)
   CONDUCTIVITY IN UNITS OF MILLIWATTS/(CM)(K)

 VISC,MILLIPOISE  0.52021  0.52082  0.52144  0.52206  0.52269  0.52333  0.52397  0.52462

  WITH EQUILIBRIUM REACTIONS

 Cp, KJ/(KG)(K)   34.5777  34.1843  33.8030  33.4333  33.0748  32.7273  32.3904  32.0638
 CONDUCTIVITY     29.0769  28.7487  28.4308  28.1230  27.8250  27.5365  27.2571  26.9866
 PRANDTL NUMBER    0.6186   0.6193   0.6200   0.6206   0.6213   0.6220   0.6227   0.6233

  WITH FROZEN REACTIONS

 Cp, KJ/(KG)(K)   20.6058  20.6064  20.6070  20.6076  20.6082  20.6087  20.6092  20.6097
 CONDUCTIVITY     15.9166  15.9395  15.9626  15.9858  16.0091  16.0325  16.0560  16.0795
 PRANDTL NUMBER    0.6735   0.6733   0.6732   0.6730   0.6729   0.6727   0.6726   0.6724

 MASS FRACTIONS

 *H               0.97607  0.97667  0.97725  0.97781  0.97836  0.97889  0.97941  0.97992
 *H2              0.02393  0.02333  0.02275  0.02219  0.02164  0.02110  0.02059  0.02008

  * THERMODYNAMIC PROPERTIES FITTED TO 20000.K

 NOTE. WEIGHT FRACTION OF FUEL IN TOTAL FUELS AND OF OXIDANT IN TOTAL OXIDANTS









               THERMODYNAMIC EQUILIBRIUM PROPERTIES AT ASSIGNED

                           TEMPERATURE AND PRESSURE

 CASE =                

             REACTANT                    WT FRACTION      ENERGY      TEMP
                                          (SEE NOTE)     KJ/KG-MOL      K  
 FUEL        H2                           1.0000000         0.000      0.000
 OXIDANT     H2                           1.0000000         0.000      0.000

 O/F=    1.00000  %FUEL= 50.000000  R,EQ.RATIO= 0.000000  PHI,EQ.RATIO=-1.000000

 THERMODYNAMIC PROPERTIES

 P, BAR           0.20000  0.22500  0.22500  0.22500  0.22500  0.22500  0.22500  0.22500
 T, K             4690.00  4550.00  4560.00  4570.00  4580.00  4590.00  4600.00  4610.00
 RHO, KG/CU M    5.2207-4 6.0898-4 6.0740-4 6.0583-4 6.0428-4 6.0274-4 6.0122-4 5.9971-4
 H, KJ/KG        302343.1 296777.6 297166.0 297549.1 297927.3 298300.6 298669.2 299033.3
 U, KJ/KG        264034.1 259830.6 260122.8 260410.3 260693.0 260971.3 261245.2 261514.9
 G, KJ/KG       -556106.3-526196.0-528005.1-529815.1-531626.0-533437.6-535250.1-537063.4
 S, KJ/(KG)(K)   183.0383 180.8733 180.9586 181.0425 181.1252 181.2066 181.2868 181.3659

 M, (1/n)           1.018    1.024    1.024    1.023    1.023    1.022    1.022    1.022
 (dLV/dLP)t      -1.00961 -1.01513 -1.01476 -1.01439 -1.01404 -1.01370 -1.01337 -1.01304
 (dLV/dLT)p        1.1144   1.1856   1.1807   1.1758   1.1712   1.1667   1.1623   1.1580
 Cp, KJ/(KG)(K)   31.7470  39.0946  38.5713  38.0637  37.5714  37.0940  36.6311  36.1821
 GAMMAs            1.4491   1.3828   1.3866   1.3904   1.3942   1.3980   1.4018   1.4056
 SON VEL,M/SEC     7450.8   7147.8   7166.9   7186.0   7205.1   7224.1   7243.1   7262.0

 TRANSPORT PROPERTIES (GASES ONLY)
   CONDUCTIVITY IN UNITS OF MILLIWATTS/(CM)(K)

 VISC,MILLIPOISE  0.52528  0.51839  0.51892  0.51945  0.52000  0.52055  0.52112  0.52169

  WITH EQUILIBRIUM REACTIONS

 Cp, KJ/(KG)(K)   31.7470  39.0946  38.5713  38.0637  37.5714  37.0940  36.6311  36.1821
 CONDUCTIVITY     26.7248  33.1007  32.6573  32.2277  31.8113  31.4077  31.0167  30.6378
 PRANDTL NUMBER    0.6240   0.6123   0.6129   0.6135   0.6142   0.6148   0.6154   0.6161

  WITH FROZEN REACTIONS

 Cp, KJ/(KG)(K)   20.6102  20.5991  20.6000  20.6008  20.6016  20.6024  20.6031  20.6038
 CONDUCTIVITY     16.1032  15.8096  15.8312  15.8530  15.8750  15.8970  15.9192  15.9415
 PRANDTL NUMBER    0.6723   0.6754   0.6752   0.6750   0.6748   0.6746   0.6744   0.6743

 MASS FRACTIONS

 *H               0.98041  0.96877  0.96956  0.97033  0.97108  0.97181  0.97251  0.97320
 *H2              0.01959  0.03123  0.03043  0.02967  0.02892  0.02819  0.02749  0.02680

  * THERMODYNAMIC PROPERTIES FITTED TO 20000.K

 NOTE. WEIGHT FRACTION OF FUEL IN TOTAL FUELS AND OF OXIDANT IN TOTAL OXIDANTS









               THERMODYNAMIC EQUILIBRIUM PROPERTIES AT ASSIGNED

                           TEMPERATURE AND PRESSURE

 CASE =                

             REACTANT                    WT FRACTION      ENERGY      TEMP
                                          (SEE NOTE)     KJ/KG-MOL      K  
 FUEL        H2                           1.0000000         0.000      0.000
 OXIDANT     H2                           1.0000000         0.000      0.000

 O/F=    1.00000  %FUEL= 50.000000  R,EQ.RATIO= 0.000000  PHI,EQ.RATIO=-1.000000

 THERMODYNAMIC PROPERTIES

 P, BAR           0.22500  0.22500  0.22500  0.22500  0.22500  0.22500  0.22500  0.22500
 T, K             4620.00  4630.00  4640.00  4650.00  4660.00  4670.00  4680.00  4690.00
 RHO, KG/CU M    5.9821-4 5.9672-4 5.9524-4 5.9378-4 5.9232-4 5.9088-4 5.8945-4 5.8803-4
 H, KJ/KG        299392.9 299748.3 300099.4 300446.6 300789.8 301129.3 301465.0 301797.2
 U, KJ/KG        261780.4 262042.0 262299.6 262553.6 262803.9 263050.7 263294.0 263534.1
 G, KJ/KG       -538877.4-540692.2-542507.8-544324.2-546141.2-547959.0-549777.6-551596.8
 S, KJ/(KG)(K)   181.4438 181.5206 181.5964 181.6711 181.7449 181.8176 181.8894 181.9604

 M, (1/n)           1.021    1.021    1.021    1.020    1.020    1.020    1.019    1.019
 (dLV/dLP)t      -1.01273 -1.01242 -1.01212 -1.01183 -1.01155 -1.01127 -1.01100 -1.01074
 (dLV/dLT)p        1.1538   1.1498   1.1459   1.1421   1.1384   1.1348   1.1313   1.1279
 Cp, KJ/(KG)(K)   35.7467  35.3244  34.9148  34.5176  34.1323  33.7587  33.3963  33.0447
 GAMMAs            1.4094   1.4132   1.4169   1.4207   1.4244   1.4281   1.4318   1.4355
 SON VEL,M/SEC     7280.9   7299.7   7318.4   7337.1   7355.7   7374.3   7392.8   7411.1

 TRANSPORT PROPERTIES (GASES ONLY)
   CONDUCTIVITY IN UNITS OF MILLIWATTS/(CM)(K)

 VISC,MILLIPOISE  0.52227  0.52285  0.52345  0.52405  0.52465  0.52527  0.52589  0.52652

  WITH EQUILIBRIUM REACTIONS

 Cp, KJ/(KG)(K)   35.7467  35.3244  34.9148  34.5176  34.1323  33.7587  33.3963  33.0447
 CONDUCTIVITY     30.2706  29.9148  29.5700  29.2360  28.9124  28.5989  28.2952  28.0010
 PRANDTL NUMBER    0.6167   0.6174   0.6181   0.6187   0.6194   0.6200   0.6207   0.6214

  WITH FROZEN REACTIONS

 Cp, KJ/(KG)(K)   20.6045  20.6052  20.6058  20.6064  20.6070  20.6076  20.6081  20.6087
 CONDUCTIVITY     15.9640  15.9866  16.0092  16.0320  16.0549  16.0779  16.1010  16.1242
 PRANDTL NUMBER    0.6741   0.6739   0.6737   0.6736   0.6734   0.6733   0.6731   0.6730

 MASS FRACTIONS

 *H               0.97386  0.97451  0.97514  0.97575  0.97635  0.97693  0.97749  0.97804
 *H2              0.02613  0.02549  0.02486  0.02424  0.02365  0.02307  0.02251  0.02196

  * THERMODYNAMIC PROPERTIES FITTED TO 20000.K

 NOTE. WEIGHT FRACTION OF FUEL IN TOTAL FUELS AND OF OXIDANT IN TOTAL OXIDANTS









               THERMODYNAMIC EQUILIBRIUM PROPERTIES AT ASSIGNED

                           TEMPERATURE AND PRESSURE

 CASE =                

             REACTANT                    WT FRACTION      ENERGY      TEMP
                                          (SEE NOTE)     KJ/KG-MOL      K  
 FUEL        H2                           1.0000000         0.000      0.000
 OXIDANT     H2                           1.0000000         0.000      0.000

 O/F=    1.00000  %FUEL= 50.000000  R,EQ.RATIO= 0.000000  PHI,EQ.RATIO=-1.000000

 THERMODYNAMIC PROPERTIES

 P, BAR           0.25000  0.25000  0.25000  0.25000  0.25000  0.25000  0.25000  0.25000
 T, K             4550.00  4560.00  4570.00  4580.00  4590.00  4600.00  4610.00  4620.00
 RHO, KG/CU M    6.7778-4 6.7599-4 6.7422-4 6.7247-4 6.7073-4 6.6901-4 6.6730-4 6.6561-4
 H, KJ/KG        296019.6 296426.1 296827.0 297222.4 297612.6 297997.6 298377.6 298752.8
 U, KJ/KG        259134.3 259443.4 259747.2 260046.0 260339.8 260628.9 260913.3 261193.2
 G, KJ/KG       -522306.4-524105.4-525905.2-527705.9-529507.5-531309.9-533113.2-534917.3
 S, KJ/(KG)(K)   179.8519 179.9411 180.0289 180.1154 180.2005 180.2842 180.3668 180.4481

 M, (1/n)           1.026    1.025    1.025    1.024    1.024    1.023    1.023    1.023
 (dLV/dLP)t      -1.01666 -1.01626 -1.01586 -1.01548 -1.01510 -1.01474 -1.01439 -1.01404
 (dLV/dLT)p        1.2045   1.1991   1.1938   1.1887   1.1837   1.1789   1.1742   1.1697
 Cp, KJ/(KG)(K)   40.9373  40.3666  39.8129  39.2757  38.7545  38.2488  37.7581  37.2821
 GAMMAs            1.3710   1.3748   1.3785   1.3823   1.3860   1.3898   1.3935   1.3973
 SON VEL,M/SEC     7111.3   7130.4   7149.5   7168.5   7187.5   7206.5   7225.4   7244.3

 TRANSPORT PROPERTIES (GASES ONLY)
   CONDUCTIVITY IN UNITS OF MILLIWATTS/(CM)(K)

 VISC,MILLIPOISE  0.52005  0.52054  0.52104  0.52155  0.52208  0.52261  0.52315  0.52369

  WITH EQUILIBRIUM REACTIONS

 Cp, KJ/(KG)(K)   40.9373  40.3666  39.8129  39.2757  38.7545  38.2488  37.7581  37.2821
 CONDUCTIVITY     34.8866  34.3993  33.9268  33.4686  33.0243  32.5934  32.1757  31.7707
 PRANDTL NUMBER    0.6102   0.6108   0.6114   0.6120   0.6127   0.6133   0.6139   0.6145

  WITH FROZEN REACTIONS

 Cp, KJ/(KG)(K)   20.5967  20.5976  20.5985  20.5994  20.6002  20.6010  20.6018  20.6026
 CONDUCTIVITY     15.8378  15.8588  15.8800  15.9014  15.9229  15.9445  15.9663  15.9882
 PRANDTL NUMBER    0.6763   0.6761   0.6759   0.6756   0.6754   0.6752   0.6750   0.6748

 MASS FRACTIONS

 *H               0.96548  0.96635  0.96720  0.96802  0.96882  0.96960  0.97035  0.97108
 *H2              0.03452  0.03365  0.03280  0.03198  0.03118  0.03040  0.02965  0.02891

  * THERMODYNAMIC PROPERTIES FITTED TO 20000.K

 NOTE. WEIGHT FRACTION OF FUEL IN TOTAL FUELS AND OF OXIDANT IN TOTAL OXIDANTS









               THERMODYNAMIC EQUILIBRIUM PROPERTIES AT ASSIGNED

                           TEMPERATURE AND PRESSURE

 CASE =                

             REACTANT                    WT FRACTION      ENERGY      TEMP
                                          (SEE NOTE)     KJ/KG-MOL      K  
 FUEL        H2                           1.0000000         0.000      0.000
 OXIDANT     H2                           1.0000000         0.000      0.000

 O/F=    1.00000  %FUEL= 50.000000  R,EQ.RATIO= 0.000000  PHI,EQ.RATIO=-1.000000

 THERMODYNAMIC PROPERTIES

 P, BAR           0.25000  0.25000  0.25000  0.25000  0.25000  0.25000  0.25000  0.28000
 T, K             4630.00  4640.00  4650.00  4660.00  4670.00  4680.00  4690.00  4550.00
 RHO, KG/CU M    6.6393-4 6.6227-4 6.6062-4 6.5898-4 6.5736-4 6.5575-4 6.5415-4 7.6062-4
 H, KJ/KG        299123.3 299489.2 299850.8 300208.0 300561.1 300910.2 301255.3 295120.1
 U, KJ/KG        261468.8 261740.1 262007.4 262270.6 262530.0 262785.7 263037.7 258308.1
 G, KJ/KG       -536722.2-538527.8-540334.3-542141.5-543949.5-545758.3-547567.8-518130.3
 S, KJ/(KG)(K)   180.5282 180.6071 180.6850 180.7617 180.8374 180.9121 180.9857 178.7364

 M, (1/n)           1.022    1.022    1.022    1.021    1.021    1.021    1.020    1.028
 (dLV/dLP)t      -1.01370 -1.01338 -1.01306 -1.01275 -1.01244 -1.01215 -1.01186 -1.01847
 (dLV/dLT)p        1.1653   1.1610   1.1568   1.1528   1.1488   1.1450   1.1413   1.2267
 Cp, KJ/(KG)(K)   36.8202  36.3721  35.9373  35.5154  35.1061  34.7090  34.3236  43.0987
 GAMMAs            1.4010   1.4047   1.4084   1.4122   1.4159   1.4195   1.4232   1.3587
 SON VEL,M/SEC     7263.2   7282.0   7300.7   7319.4   7338.0   7356.6   7375.1   7072.2

 TRANSPORT PROPERTIES (GASES ONLY)
   CONDUCTIVITY IN UNITS OF MILLIWATTS/(CM)(K)

 VISC,MILLIPOISE  0.52425  0.52481  0.52539  0.52596  0.52655  0.52715  0.52775  0.52201

  WITH EQUILIBRIUM REACTIONS

 Cp, KJ/(KG)(K)   36.8202  36.3721  35.9373  35.5154  35.1061  34.7090  34.3236  43.0987
 CONDUCTIVITY     31.3781  30.9974  30.6284  30.2706  29.9238  29.5877  29.2618  36.9898
 PRANDTL NUMBER    0.6152   0.6158   0.6165   0.6171   0.6177   0.6184   0.6190   0.6082

  WITH FROZEN REACTIONS

 Cp, KJ/(KG)(K)   20.6033  20.6040  20.6047  20.6053  20.6060  20.6066  20.6072  20.5937
 CONDUCTIVITY     16.0103  16.0325  16.0548  16.0772  16.0997  16.1223  16.1451  15.8713
 PRANDTL NUMBER    0.6746   0.6745   0.6743   0.6741   0.6739   0.6738   0.6736   0.6773

 MASS FRACTIONS

 *H               0.97180  0.97249  0.97317  0.97382  0.97446  0.97508  0.97568  0.96157
 *H2              0.02820  0.02751  0.02683  0.02618  0.02554  0.02492  0.02431  0.03842

  * THERMODYNAMIC PROPERTIES FITTED TO 20000.K

 NOTE. WEIGHT FRACTION OF FUEL IN TOTAL FUELS AND OF OXIDANT IN TOTAL OXIDANTS









               THERMODYNAMIC EQUILIBRIUM PROPERTIES AT ASSIGNED

                           TEMPERATURE AND PRESSURE

 CASE =                

             REACTANT                    WT FRACTION      ENERGY      TEMP
                                          (SEE NOTE)     KJ/KG-MOL      K  
 FUEL        H2                           1.0000000         0.000      0.000
 OXIDANT     H2                           1.0000000         0.000      0.000

 O/F=    1.00000  %FUEL= 50.000000  R,EQ.RATIO= 0.000000  PHI,EQ.RATIO=-1.000000

 THERMODYNAMIC PROPERTIES

 P, BAR           0.28000  0.28000  0.28000  0.28000  0.28000  0.28000  0.28000  0.28000
 T, K             4560.00  4570.00  4580.00  4590.00  4600.00  4610.00  4620.00  4630.00
 RHO, KG/CU M    7.5858-4 7.5656-4 7.5456-4 7.5258-4 7.5061-4 7.4866-4 7.4673-4 7.4482-4
 H, KJ/KG        295547.9 295969.6 296385.3 296795.3 297199.5 297598.3 297991.8 298380.2
 U, KJ/KG        258637.0 258960.1 259277.6 259589.7 259896.6 260198.4 260495.2 260787.3
 G, KJ/KG       -519918.2-521706.9-523496.6-525287.2-527078.7-528871.0-530664.2-532458.3
 S, KJ/(KG)(K)   178.8303 178.9227 179.0135 179.1029 179.1909 179.2775 179.3628 179.4467

 M, (1/n)           1.027    1.027    1.026    1.026    1.025    1.025    1.024    1.024
 (dLV/dLP)t      -1.01803 -1.01760 -1.01717 -1.01676 -1.01636 -1.01597 -1.01559 -1.01522
 (dLV/dLT)p        1.2207   1.2150   1.2094   1.2039   1.1986   1.1934   1.1884   1.1836
 Cp, KJ/(KG)(K)   42.4738  41.8671  41.2782  40.7065  40.1515  39.6128  39.0898  38.5822
 GAMMAs            1.3623   1.3660   1.3697   1.3733   1.3770   1.3807   1.3844   1.3881
 SON VEL,M/SEC     7091.2   7110.2   7129.2   7148.1   7167.1   7186.0   7204.9   7223.7

 TRANSPORT PROPERTIES (GASES ONLY)
   CONDUCTIVITY IN UNITS OF MILLIWATTS/(CM)(K)

 VISC,MILLIPOISE  0.52246  0.52293  0.52340  0.52388  0.52437  0.52488  0.52539  0.52591

  WITH EQUILIBRIUM REACTIONS

 Cp, KJ/(KG)(K)   42.4738  41.8671  41.2782  40.7065  40.1515  39.6128  39.0898  38.5822
 CONDUCTIVITY     36.4518  35.9297  35.4230  34.9315  34.4545  33.9917  33.5428  33.1073
 PRANDTL NUMBER    0.6088   0.6093   0.6099   0.6105   0.6111   0.6117   0.6123   0.6129

  WITH FROZEN REACTIONS

 Cp, KJ/(KG)(K)   20.5948  20.5958  20.5967  20.5977  20.5986  20.5995  20.6003  20.6011
 CONDUCTIVITY     15.8916  15.9121  15.9328  15.9536  15.9746  15.9958  16.0171  16.0385
 PRANDTL NUMBER    0.6771   0.6768   0.6766   0.6764   0.6762   0.6759   0.6757   0.6755

 MASS FRACTIONS

 *H               0.96254  0.96347  0.96438  0.96527  0.96613  0.96697  0.96778  0.96857
 *H2              0.03746  0.03652  0.03561  0.03473  0.03387  0.03303  0.03222  0.03143

  * THERMODYNAMIC PROPERTIES FITTED TO 20000.K

 NOTE. WEIGHT FRACTION OF FUEL IN TOTAL FUELS AND OF OXIDANT IN TOTAL OXIDANTS









               THERMODYNAMIC EQUILIBRIUM PROPERTIES AT ASSIGNED

                           TEMPERATURE AND PRESSURE

 CASE =                

             REACTANT                    WT FRACTION      ENERGY      TEMP
                                          (SEE NOTE)     KJ/KG-MOL      K  
 FUEL        H2                           1.0000000         0.000      0.000
 OXIDANT     H2                           1.0000000         0.000      0.000

 O/F=    1.00000  %FUEL= 50.000000  R,EQ.RATIO= 0.000000  PHI,EQ.RATIO=-1.000000

 THERMODYNAMIC PROPERTIES

 P, BAR           0.28000  0.28000  0.28000  0.28000  0.28000  0.28000  0.31000  0.31000
 T, K             4640.00  4650.00  4660.00  4670.00  4680.00  4690.00  4550.00  4560.00
 RHO, KG/CU M    7.4293-4 7.4105-4 7.3918-4 7.3734-4 7.3550-4 7.3369-4 8.4378-4 8.4147-4
 H, KJ/KG        298763.5 299142.0 299515.8 299885.0 300249.8 300610.2 294231.4 294680.1
 U, KJ/KG        261074.7 261357.6 261636.2 261910.5 262180.6 262446.7 257491.9 257840.0
 G, KJ/KG       -534253.1-536048.8-537845.4-539642.7-541440.8-543239.6-514387.1-516164.8
 S, KJ/(KG)(K)   179.5295 179.6109 179.6912 179.7704 179.8484 179.9253 177.7184 177.8169

 M, (1/n)           1.024    1.023    1.023    1.022    1.022    1.022    1.030    1.029
 (dLV/dLP)t      -1.01486 -1.01451 -1.01417 -1.01383 -1.01351 -1.01319 -1.02025 -1.01977
 (dLV/dLT)p        1.1788   1.1742   1.1698   1.1654   1.1612   1.1571   1.2484   1.2420
 Cp, KJ/(KG)(K)   38.0894  37.6111  37.1468  36.6961  36.2586  35.8340  45.2072  44.5307
 GAMMAs            1.3918   1.3954   1.3991   1.4028   1.4065   1.4101   1.3480   1.3515
 SON VEL,M/SEC     7242.5   7261.3   7280.0   7298.7   7317.3   7335.9   7037.3   7056.2

 TRANSPORT PROPERTIES (GASES ONLY)
   CONDUCTIVITY IN UNITS OF MILLIWATTS/(CM)(K)

 VISC,MILLIPOISE  0.52644  0.52697  0.52752  0.52808  0.52864  0.52921  0.52395  0.52436

  WITH EQUILIBRIUM REACTIONS

 Cp, KJ/(KG)(K)   38.0894  37.6111  37.1468  36.6961  36.2586  35.8340  45.2072  44.5307
 CONDUCTIVITY     32.6848  32.2749  31.8773  31.4917  31.1177  30.7549  39.0506  38.4638
 PRANDTL NUMBER    0.6135   0.6141   0.6147   0.6153   0.6160   0.6166   0.6066   0.6071

  WITH FROZEN REACTIONS

 Cp, KJ/(KG)(K)   20.6019  20.6026  20.6034  20.6041  20.6047  20.6054  20.5908  20.5920
 CONDUCTIVITY     16.0601  16.0818  16.1036  16.1256  16.1477  16.1700  15.9044  15.9240
 PRANDTL NUMBER    0.6753   0.6751   0.6749   0.6747   0.6745   0.6744   0.6783   0.6781

 MASS FRACTIONS

 *H               0.96934  0.97009  0.97082  0.97153  0.97221  0.97288  0.95771  0.95877
 *H2              0.03066  0.02991  0.02918  0.02847  0.02778  0.02711  0.04228  0.04123

  * THERMODYNAMIC PROPERTIES FITTED TO 20000.K

 NOTE. WEIGHT FRACTION OF FUEL IN TOTAL FUELS AND OF OXIDANT IN TOTAL OXIDANTS









               THERMODYNAMIC EQUILIBRIUM PROPERTIES AT ASSIGNED

                           TEMPERATURE AND PRESSURE

 CASE =                

             REACTANT                    WT FRACTION      ENERGY      TEMP
                                          (SEE NOTE)     KJ/KG-MOL      K  
 FUEL        H2                           1.0000000         0.000      0.000
 OXIDANT     H2                           1.0000000         0.000      0.000

 O/F=    1.00000  %FUEL= 50.000000  R,EQ.RATIO= 0.000000  PHI,EQ.RATIO=-1.000000

 THERMODYNAMIC PROPERTIES

 P, BAR           0.31000  0.31000  0.31000  0.31000  0.31000  0.31000  0.31000  0.31000
 T, K             4570.00  4580.00  4590.00  4600.00  4610.00  4620.00  4630.00  4640.00
 RHO, KG/CU M    8.3919-4 8.3694-4 8.3470-4 8.3249-4 8.3029-4 8.2812-4 8.2596-4 8.2383-4
 H, KJ/KG        295122.1 295557.6 295986.9 296410.0 296827.2 297238.6 297644.5 298044.9
 U, KJ/KG        258181.9 258517.8 258847.8 259172.1 259490.9 259804.4 260112.6 260415.8
 G, KJ/KG       -517943.5-519723.1-521503.6-523285.1-525067.5-526850.8-528635.0-530420.1
 S, KJ/(KG)(K)   177.9137 178.0089 178.1025 178.1946 178.2852 178.3743 178.4621 178.5485

 M, (1/n)           1.029    1.028    1.028    1.027    1.027    1.026    1.026    1.025
 (dLV/dLP)t      -1.01929 -1.01884 -1.01839 -1.01795 -1.01753 -1.01711 -1.01671 -1.01632
 (dLV/dLT)p        1.2357   1.2296   1.2237   1.2179   1.2123   1.2069   1.2016   1.1964
 Cp, KJ/(KG)(K)   43.8736  43.2353  42.6153  42.0132  41.4284  40.8605  40.3089  39.7732
 GAMMAs            1.3551   1.3587   1.3623   1.3659   1.3695   1.3731   1.3767   1.3803
 SON VEL,M/SEC     7075.1   7094.0   7112.9   7131.7   7150.6   7169.4   7188.2   7207.0

 TRANSPORT PROPERTIES (GASES ONLY)
   CONDUCTIVITY IN UNITS OF MILLIWATTS/(CM)(K)

 VISC,MILLIPOISE  0.52478  0.52522  0.52566  0.52612  0.52658  0.52706  0.52754  0.52804

  WITH EQUILIBRIUM REACTIONS

 Cp, KJ/(KG)(K)   43.8736  43.2353  42.6153  42.0132  41.4284  40.8605  40.3089  39.7732
 CONDUCTIVITY     37.8941  37.3409  36.8038  36.2824  35.7762  35.2848  34.8079  34.3449
 PRANDTL NUMBER    0.6076   0.6081   0.6087   0.6092   0.6098   0.6103   0.6109   0.6115

  WITH FROZEN REACTIONS

 Cp, KJ/(KG)(K)   20.5931  20.5941  20.5952  20.5962  20.5971  20.5980  20.5989  20.5998
 CONDUCTIVITY     15.9438  15.9638  15.9840  16.0044  16.0249  16.0456  16.0664  16.0874
 PRANDTL NUMBER    0.6778   0.6776   0.6773   0.6771   0.6768   0.6766   0.6764   0.6761

 MASS FRACTIONS

 *H               0.95979  0.96079  0.96176  0.96270  0.96362  0.96451  0.96538  0.96622
 *H2              0.04020  0.03921  0.03824  0.03730  0.03638  0.03549  0.03462  0.03378

  * THERMODYNAMIC PROPERTIES FITTED TO 20000.K

 NOTE. WEIGHT FRACTION OF FUEL IN TOTAL FUELS AND OF OXIDANT IN TOTAL OXIDANTS









               THERMODYNAMIC EQUILIBRIUM PROPERTIES AT ASSIGNED

                           TEMPERATURE AND PRESSURE

 CASE =                

             REACTANT                    WT FRACTION      ENERGY      TEMP
                                          (SEE NOTE)     KJ/KG-MOL      K  
 FUEL        H2                           1.0000000         0.000      0.000
 OXIDANT     H2                           1.0000000         0.000      0.000

 O/F=    1.00000  %FUEL= 50.000000  R,EQ.RATIO= 0.000000  PHI,EQ.RATIO=-1.000000

 THERMODYNAMIC PROPERTIES

 P, BAR           0.31000  0.31000  0.31000  0.31000  0.31000  0.35000  0.35000  0.35000
 T, K             4650.00  4660.00  4670.00  4680.00  4690.00  4550.00  4560.00  4570.00
 RHO, KG/CU M    8.2172-4 8.1962-4 8.1754-4 8.1548-4 8.1344-4 9.5513-4 9.5246-4 9.4982-4
 H, KJ/KG        298440.0 298830.0 299215.0 299595.2 299970.6 293063.0 293538.7 294007.1
 U, KJ/KG        260714.1 261007.6 261296.5 261580.8 261860.9 256418.7 256791.8 257158.1
 G, KJ/KG       -532206.0-533992.7-535780.3-537568.7-539357.9-509934.1-511699.4-513465.8
 S, KJ/(KG)(K)   178.6335 178.7173 178.7999 178.8812 178.9613 176.4829 176.5873 176.6899

 M, (1/n)           1.025    1.024    1.024    1.024    1.023    1.032    1.032    1.031
 (dLV/dLP)t      -1.01594 -1.01556 -1.01520 -1.01484 -1.01450 -1.02256 -1.02203 -1.02151
 (dLV/dLT)p        1.1914   1.1865   1.1818   1.1772   1.1727   1.2768   1.2697   1.2628
 Cp, KJ/(KG)(K)   39.2530  38.7479  38.2573  37.7809  37.3183  47.9392  47.1977  46.4770
 GAMMAs            1.3840   1.3876   1.3912   1.3948   1.3985   1.3357   1.3391   1.3425
 SON VEL,M/SEC     7225.7   7244.4   7263.1   7281.8   7300.4   6996.0   7014.8   7033.5

 TRANSPORT PROPERTIES (GASES ONLY)
   CONDUCTIVITY IN UNITS OF MILLIWATTS/(CM)(K)

 VISC,MILLIPOISE  0.52854  0.52906  0.52958  0.53011  0.53065  0.52649  0.52685  0.52722

  WITH EQUILIBRIUM REACTIONS

 Cp, KJ/(KG)(K)   39.2530  38.7479  38.2573  37.7809  37.3183  47.9392  47.1977  46.4770
 CONDUCTIVITY     33.8955  33.4594  33.0361  32.6254  32.2267  41.7342  41.0855  40.4552
 PRANDTL NUMBER    0.6121   0.6127   0.6133   0.6139   0.6145   0.6048   0.6052   0.6057

  WITH FROZEN REACTIONS

 Cp, KJ/(KG)(K)   20.6006  20.6014  20.6022  20.6029  20.6036  20.5870  20.5883  20.5895
 CONDUCTIVITY     16.1086  16.1299  16.1513  16.1729  16.1946  15.9479  15.9666  15.9855
 PRANDTL NUMBER    0.6759   0.6757   0.6755   0.6753   0.6751   0.6796   0.6793   0.6791

 MASS FRACTIONS

 *H               0.96704  0.96784  0.96862  0.96937  0.97011  0.95264  0.95381  0.95495
 *H2              0.03296  0.03216  0.03138  0.03062  0.02989  0.04736  0.04619  0.04505

  * THERMODYNAMIC PROPERTIES FITTED TO 20000.K

 NOTE. WEIGHT FRACTION OF FUEL IN TOTAL FUELS AND OF OXIDANT IN TOTAL OXIDANTS









               THERMODYNAMIC EQUILIBRIUM PROPERTIES AT ASSIGNED

                           TEMPERATURE AND PRESSURE

 CASE =                

             REACTANT                    WT FRACTION      ENERGY      TEMP
                                          (SEE NOTE)     KJ/KG-MOL      K  
 FUEL        H2                           1.0000000         0.000      0.000
 OXIDANT     H2                           1.0000000         0.000      0.000

 O/F=    1.00000  %FUEL= 50.000000  R,EQ.RATIO= 0.000000  PHI,EQ.RATIO=-1.000000

 THERMODYNAMIC PROPERTIES

 P, BAR           0.35000  0.35000  0.35000  0.35000  0.35000  0.35000  0.35000  0.35000
 T, K             4580.00  4590.00  4600.00  4610.00  4620.00  4630.00  4640.00  4650.00
 RHO, KG/CU M    9.4721-4 9.4463-4 9.4207-4 9.3954-4 9.3703-4 9.3454-4 9.3208-4 9.2964-4
 H, KJ/KG        294468.3 294922.7 295370.3 295811.4 296246.1 296674.7 297097.4 297514.2
 U, KJ/KG        257517.8 257871.0 258218.0 258559.0 258894.0 259223.3 259547.0 259865.3
 G, KJ/KG       -515233.2-517001.6-518771.0-520541.4-522312.7-524084.9-525858.1-527632.1
 S, KJ/(KG)(K)   176.7907 176.8898 176.9872 177.0830 177.1772 177.2699 177.3611 177.4508

 M, (1/n)           1.031    1.030    1.029    1.029    1.028    1.028    1.027    1.027
 (dLV/dLP)t      -1.02100 -1.02051 -1.02003 -1.01956 -1.01911 -1.01866 -1.01823 -1.01780
 (dLV/dLT)p        1.2561   1.2495   1.2432   1.2370   1.2309   1.2251   1.2194   1.2138
 Cp, KJ/(KG)(K)   45.7764  45.0954  44.4336  43.7904  43.1653  42.5579  41.9676  41.3940
 GAMMAs            1.3460   1.3495   1.3530   1.3565   1.3600   1.3635   1.3670   1.3706
 SON VEL,M/SEC     7052.3   7071.0   7089.8   7108.5   7127.3   7146.0   7164.7   7183.4

 TRANSPORT PROPERTIES (GASES ONLY)
   CONDUCTIVITY IN UNITS OF MILLIWATTS/(CM)(K)

 VISC,MILLIPOISE  0.52760  0.52800  0.52841  0.52883  0.52926  0.52970  0.53015  0.53061

  WITH EQUILIBRIUM REACTIONS

 Cp, KJ/(KG)(K)   45.7764  45.0954  44.4336  43.7904  43.1653  42.5579  41.9676  41.3940
 CONDUCTIVITY     39.8427  39.2476  38.6694  38.1077  37.5620  37.0319  36.5170  36.0170
 PRANDTL NUMBER    0.6062   0.6067   0.6072   0.6077   0.6082   0.6087   0.6093   0.6098

  WITH FROZEN REACTIONS

 Cp, KJ/(KG)(K)   20.5907  20.5918  20.5930  20.5940  20.5950  20.5960  20.5970  20.5979
 CONDUCTIVITY     16.0047  16.0240  16.0436  16.0633  16.0832  16.1033  16.1235  16.1439
 PRANDTL NUMBER    0.6788   0.6785   0.6782   0.6780   0.6777   0.6775   0.6772   0.6770

 MASS FRACTIONS

 *H               0.95606  0.95714  0.95819  0.95921  0.96020  0.96117  0.96211  0.96302
 *H2              0.04394  0.04286  0.04181  0.04079  0.03980  0.03883  0.03789  0.03697

  * THERMODYNAMIC PROPERTIES FITTED TO 20000.K

 NOTE. WEIGHT FRACTION OF FUEL IN TOTAL FUELS AND OF OXIDANT IN TOTAL OXIDANTS









               THERMODYNAMIC EQUILIBRIUM PROPERTIES AT ASSIGNED

                           TEMPERATURE AND PRESSURE

 CASE =                

             REACTANT                    WT FRACTION      ENERGY      TEMP
                                          (SEE NOTE)     KJ/KG-MOL      K  
 FUEL        H2                           1.0000000         0.000      0.000
 OXIDANT     H2                           1.0000000         0.000      0.000

 O/F=    1.00000  %FUEL= 50.000000  R,EQ.RATIO= 0.000000  PHI,EQ.RATIO=-1.000000

 THERMODYNAMIC PROPERTIES

 P, BAR           0.35000  0.35000  0.35000  0.35000  0.39000  0.39000  0.39000  0.39000
 T, K             4660.00  4670.00  4680.00  4690.00  4550.00  4560.00  4570.00  4580.00
 RHO, KG/CU M    9.2723-4 9.2483-4 9.2246-4 9.2011-4 1.0670-3 1.0640-3 1.0610-3 1.0580-3
 H, KJ/KG        297925.3 298330.9 298731.3 299126.4 291913.0 292414.8 292908.7 293394.9
 U, KJ/KG        260178.4 260486.3 260789.3 261087.5 255362.5 255759.8 256149.7 256532.5
 G, KJ/KG       -529407.1-531182.9-532959.6-534737.1-505973.7-507727.8-509483.0-511239.4
 S, KJ/(KG)(K)   177.5391 177.6261 177.7117 177.7961 175.3597 175.4699 175.5781 175.6843

 M, (1/n)           1.026    1.026    1.026    1.025    1.035    1.034    1.034    1.033
 (dLV/dLP)t      -1.01739 -1.01699 -1.01660 -1.01622 -1.02481 -1.02423 -1.02367 -1.02312
 (dLV/dLT)p        1.2084   1.2032   1.1981   1.1931   1.3044   1.2966   1.2891   1.2818
 Cp, KJ/(KG)(K)   40.8367  40.2952  39.7690  39.2577  50.5836  49.7814  49.0010  48.2418
 GAMMAs            1.3741   1.3777   1.3812   1.3848   1.3252   1.3285   1.3318   1.3351
 SON VEL,M/SEC     7202.0   7220.7   7239.3   7257.9   6959.6   6978.2   6996.8   7015.4

 TRANSPORT PROPERTIES (GASES ONLY)
   CONDUCTIVITY IN UNITS OF MILLIWATTS/(CM)(K)

 VISC,MILLIPOISE  0.53108  0.53156  0.53206  0.53256  0.52898  0.52929  0.52961  0.52995

  WITH EQUILIBRIUM REACTIONS

 Cp, KJ/(KG)(K)   40.8367  40.2952  39.7690  39.2577  50.5836  49.7814  49.0010  48.2418
 CONDUCTIVITY     35.5313  35.0596  34.6015  34.1567  44.3468  43.6396  42.9518  42.2831
 PRANDTL NUMBER    0.6104   0.6109   0.6115   0.6121   0.6034   0.6038   0.6042   0.6046

  WITH FROZEN REACTIONS

 Cp, KJ/(KG)(K)   20.5988  20.5997  20.6005  20.6013  20.5833  20.5847  20.5860  20.5873
 CONDUCTIVITY     16.1645  16.1853  16.2061  16.2272  15.9907  16.0085  16.0266  16.0450
 PRANDTL NUMBER    0.6768   0.6765   0.6763   0.6761   0.6809   0.6806   0.6803   0.6800

 MASS FRACTIONS

 *H               0.96391  0.96478  0.96562  0.96644  0.94765  0.94893  0.95018  0.95140
 *H2              0.03608  0.03522  0.03437  0.03355  0.05235  0.05107  0.04982  0.04860

  * THERMODYNAMIC PROPERTIES FITTED TO 20000.K

 NOTE. WEIGHT FRACTION OF FUEL IN TOTAL FUELS AND OF OXIDANT IN TOTAL OXIDANTS









               THERMODYNAMIC EQUILIBRIUM PROPERTIES AT ASSIGNED

                           TEMPERATURE AND PRESSURE

 CASE =                

             REACTANT                    WT FRACTION      ENERGY      TEMP
                                          (SEE NOTE)     KJ/KG-MOL      K  
 FUEL        H2                           1.0000000         0.000      0.000
 OXIDANT     H2                           1.0000000         0.000      0.000

 O/F=    1.00000  %FUEL= 50.000000  R,EQ.RATIO= 0.000000  PHI,EQ.RATIO=-1.000000

 THERMODYNAMIC PROPERTIES

 P, BAR           0.39000  0.39000  0.39000  0.39000  0.39000  0.39000  0.39000  0.39000
 T, K             4590.00  4600.00  4610.00  4620.00  4630.00  4640.00  4650.00  4660.00
 RHO, KG/CU M    1.0550-3 1.0521-3 1.0492-3 1.0464-3 1.0436-3 1.0408-3 1.0380-3 1.0352-3
 H, KJ/KG        293873.6 294345.1 294809.4 295266.9 295717.6 296161.9 296599.8 297031.6
 U, KJ/KG        256908.3 257277.3 257639.7 257995.7 258345.5 258689.3 259027.1 259359.2
 G, KJ/KG       -512996.7-514755.1-516514.5-518275.0-520036.4-521798.7-523562.1-525326.3
 S, KJ/(KG)(K)   175.7887 175.8913 175.9922 176.0913 176.1888 176.2846 176.3789 176.4716

 M, (1/n)           1.032    1.032    1.031    1.031    1.030    1.030    1.029    1.028
 (dLV/dLP)t      -1.02258 -1.02206 -1.02155 -1.02105 -1.02057 -1.02010 -1.01963 -1.01918
 (dLV/dLT)p        1.2747   1.2678   1.2610   1.2545   1.2481   1.2419   1.2358   1.2299
 Cp, KJ/(KG)(K)   47.5035  46.7854  46.0871  45.4080  44.7477  44.1056  43.4813  42.8744
 GAMMAs            1.3385   1.3419   1.3453   1.3487   1.3521   1.3556   1.3590   1.3625
 SON VEL,M/SEC     7034.1   7052.7   7071.3   7089.9   7108.5   7127.1   7145.7   7164.3

 TRANSPORT PROPERTIES (GASES ONLY)
   CONDUCTIVITY IN UNITS OF MILLIWATTS/(CM)(K)

 VISC,MILLIPOISE  0.53029  0.53066  0.53103  0.53142  0.53182  0.53222  0.53264  0.53308

  WITH EQUILIBRIUM REACTIONS

 Cp, KJ/(KG)(K)   47.5035  46.7854  46.0871  45.4080  44.7477  44.1056  43.4813  42.8744
 CONDUCTIVITY     41.6328  41.0006  40.3859  39.7884  39.2076  38.6431  38.0945  37.5613
 PRANDTL NUMBER    0.6051   0.6055   0.6060   0.6065   0.6070   0.6075   0.6080   0.6085

  WITH FROZEN REACTIONS

 Cp, KJ/(KG)(K)   20.5886  20.5898  20.5910  20.5921  20.5932  20.5943  20.5953  20.5963
 CONDUCTIVITY     16.0635  16.0822  16.1012  16.1203  16.1396  16.1592  16.1789  16.1987
 PRANDTL NUMBER    0.6797   0.6794   0.6791   0.6788   0.6786   0.6783   0.6780   0.6778

 MASS FRACTIONS

 *H               0.95258  0.95374  0.95486  0.95595  0.95701  0.95805  0.95905  0.96003
 *H2              0.04742  0.04626  0.04514  0.04405  0.04299  0.04195  0.04094  0.03996

  * THERMODYNAMIC PROPERTIES FITTED TO 20000.K

 NOTE. WEIGHT FRACTION OF FUEL IN TOTAL FUELS AND OF OXIDANT IN TOTAL OXIDANTS









               THERMODYNAMIC EQUILIBRIUM PROPERTIES AT ASSIGNED

                           TEMPERATURE AND PRESSURE

 CASE =                

             REACTANT                    WT FRACTION      ENERGY      TEMP
                                          (SEE NOTE)     KJ/KG-MOL      K  
 FUEL        H2                           1.0000000         0.000      0.000
 OXIDANT     H2                           1.0000000         0.000      0.000

 O/F=    1.00000  %FUEL= 50.000000  R,EQ.RATIO= 0.000000  PHI,EQ.RATIO=-1.000000

 THERMODYNAMIC PROPERTIES

 P, BAR           0.39000  0.39000  0.39000  0.44000  0.44000  0.44000  0.44000  0.44000
 T, K             4670.00  4680.00  4690.00  4550.00  4560.00  4570.00  4580.00  4590.00
 RHO, KG/CU M    1.0325-3 1.0298-3 1.0272-3 1.2076-3 1.2041-3 1.2006-3 1.1971-3 1.1937-3
 H, KJ/KG        297457.3 297877.3 298291.6 290500.6 291034.0 291558.7 292075.0 292583.2
 U, KJ/KG        259685.8 260006.9 260322.8 254065.2 254491.7 254910.2 255320.8 255723.9
 G, KJ/KG       -527091.5-528857.6-530624.5-501571.5-503312.9-505055.4-506799.1-508544.0
 S, KJ/(KG)(K)   176.5629 176.6527 176.7412 174.0818 174.1989 174.3138 174.4267 174.5375

 M, (1/n)           1.028    1.028    1.027    1.038    1.038    1.037    1.036    1.035
 (dLV/dLP)t      -1.01875 -1.01832 -1.01790 -1.02753 -1.02690 -1.02629 -1.02569 -1.02510
 (dLV/dLT)p        1.2242   1.2186   1.2132   1.3378   1.3294   1.3212   1.3132   1.3054
 Cp, KJ/(KG)(K)   42.2844  41.7107  41.1531  53.7713  52.8986  52.0488  51.2216  50.4163
 GAMMAs            1.3659   1.3694   1.3729   1.3141   1.3172   1.3204   1.3236   1.3268
 SON VEL,M/SEC     7182.9   7201.4   7220.0   6919.4   6937.9   6956.3   6974.8   6993.2

 TRANSPORT PROPERTIES (GASES ONLY)
   CONDUCTIVITY IN UNITS OF MILLIWATTS/(CM)(K)

 VISC,MILLIPOISE  0.53352  0.53397  0.53443  0.53202  0.53227  0.53253  0.53281  0.53311

  WITH EQUILIBRIUM REACTIONS

 Cp, KJ/(KG)(K)   42.2844  41.7107  41.1531  53.7713  52.8986  52.0488  51.2216  50.4163
 CONDUCTIVITY     37.0431  36.5396  36.0503  47.5166  46.7406  45.9852  45.2501  44.5347
 PRANDTL NUMBER    0.6090   0.6095   0.6101   0.6020   0.6024   0.6028   0.6031   0.6035

  WITH FROZEN REACTIONS

 Cp, KJ/(KG)(K)   20.5972  20.5981  20.5990  20.5787  20.5802  20.5817  20.5832  20.5846
 CONDUCTIVITY     16.2188  16.2390  16.2594  16.0433  16.0601  16.0772  16.0945  16.1120
 PRANDTL NUMBER    0.6775   0.6773   0.6771   0.6824   0.6821   0.6817   0.6814   0.6811

 MASS FRACTIONS

 *H               0.96099  0.96192  0.96282  0.94151  0.94293  0.94432  0.94567  0.94698
 *H2              0.03901  0.03808  0.03718  0.05849  0.05706  0.05568  0.05433  0.05302

  * THERMODYNAMIC PROPERTIES FITTED TO 20000.K

 NOTE. WEIGHT FRACTION OF FUEL IN TOTAL FUELS AND OF OXIDANT IN TOTAL OXIDANTS









               THERMODYNAMIC EQUILIBRIUM PROPERTIES AT ASSIGNED

                           TEMPERATURE AND PRESSURE

 CASE =                

             REACTANT                    WT FRACTION      ENERGY      TEMP
                                          (SEE NOTE)     KJ/KG-MOL      K  
 FUEL        H2                           1.0000000         0.000      0.000
 OXIDANT     H2                           1.0000000         0.000      0.000

 O/F=    1.00000  %FUEL= 50.000000  R,EQ.RATIO= 0.000000  PHI,EQ.RATIO=-1.000000

 THERMODYNAMIC PROPERTIES

 P, BAR           0.44000  0.44000  0.44000  0.44000  0.44000  0.44000  0.44000  0.44000
 T, K             4600.00  4610.00  4620.00  4630.00  4640.00  4650.00  4660.00  4670.00
 RHO, KG/CU M    1.1904-3 1.1870-3 1.1837-3 1.1804-3 1.1772-3 1.1740-3 1.1708-3 1.1677-3
 H, KJ/KG        293083.4 293575.9 294060.9 294538.5 295009.0 295472.6 295929.5 296379.7
 U, KJ/KG        256119.6 256508.1 256889.5 257264.2 257632.2 257993.8 258349.1 258698.3
 G, KJ/KG       -510289.9-512036.9-513784.9-515534.0-517284.2-519035.3-520787.4-522540.5
 S, KJ/(KG)(K)   174.6464 174.7533 174.8584 174.9617 175.0632 175.1630 175.2611 175.3577

 M, (1/n)           1.035    1.034    1.033    1.033    1.032    1.032    1.031    1.030
 (dLV/dLP)t      -1.02453 -1.02397 -1.02343 -1.02290 -1.02238 -1.02187 -1.02137 -1.02089
 (dLV/dLT)p        1.2978   1.2904   1.2832   1.2761   1.2693   1.2626   1.2561   1.2498
 Cp, KJ/(KG)(K)   49.6324  48.8695  48.1271  47.4046  46.7016  46.0176  45.3521  44.7046
 GAMMAs            1.3300   1.3333   1.3366   1.3399   1.3432   1.3466   1.3499   1.3533
 SON VEL,M/SEC     7011.7   7030.1   7048.6   7067.1   7085.6   7104.0   7122.5   7141.0

 TRANSPORT PROPERTIES (GASES ONLY)
   CONDUCTIVITY IN UNITS OF MILLIWATTS/(CM)(K)

 VISC,MILLIPOISE  0.53341  0.53374  0.53407  0.53442  0.53477  0.53514  0.53553  0.53592

  WITH EQUILIBRIUM REACTIONS

 Cp, KJ/(KG)(K)   49.6324  48.8695  48.1271  47.4046  46.7016  46.0176  45.3521  44.7046
 CONDUCTIVITY     43.8386  43.1614  42.5024  41.8614  41.2379  40.6314  40.0416  39.4680
 PRANDTL NUMBER    0.6039   0.6043   0.6047   0.6052   0.6056   0.6061   0.6066   0.6070

  WITH FROZEN REACTIONS

 Cp, KJ/(KG)(K)   20.5859  20.5872  20.5885  20.5897  20.5909  20.5920  20.5931  20.5942
 CONDUCTIVITY     16.1298  16.1478  16.1660  16.1845  16.2031  16.2219  16.2409  16.2601
 PRANDTL NUMBER    0.6808   0.6805   0.6802   0.6799   0.6796   0.6793   0.6790   0.6788

 MASS FRACTIONS

 *H               0.94826  0.94950  0.95071  0.95189  0.95304  0.95416  0.95525  0.95631
 *H2              0.05174  0.05050  0.04928  0.04810  0.04696  0.04584  0.04475  0.04369

  * THERMODYNAMIC PROPERTIES FITTED TO 20000.K

 NOTE. WEIGHT FRACTION OF FUEL IN TOTAL FUELS AND OF OXIDANT IN TOTAL OXIDANTS









               THERMODYNAMIC EQUILIBRIUM PROPERTIES AT ASSIGNED

                           TEMPERATURE AND PRESSURE

 CASE =                

             REACTANT                    WT FRACTION      ENERGY      TEMP
                                          (SEE NOTE)     KJ/KG-MOL      K  
 FUEL        H2                           1.0000000         0.000      0.000
 OXIDANT     H2                           1.0000000         0.000      0.000

 O/F=    1.00000  %FUEL= 50.000000  R,EQ.RATIO= 0.000000  PHI,EQ.RATIO=-1.000000

 THERMODYNAMIC PROPERTIES

 P, BAR           0.44000  0.44000  0.49000  0.49000  0.49000  0.49000  0.49000  0.49000
 T, K             4680.00  4690.00  4550.00  4560.00  4570.00  4580.00  4590.00  4600.00
 RHO, KG/CU M    1.1646-3 1.1615-3 1.3490-3 1.3450-3 1.3410-3 1.3370-3 1.3331-3 1.3293-3
 H, KJ/KG        296823.6 297261.3 289115.4 289679.0 290233.4 290778.7 291315.3 291843.3
 U, KJ/KG        259041.5 259379.0 252792.8 253247.4 253693.3 254130.9 254560.2 254981.6
 G, KJ/KG       -524294.6-526049.6-497655.9-499385.7-501116.7-502848.9-504582.3-506316.8
 S, KJ/(KG)(K)   175.4526 175.5460 172.9168 173.0405 173.1619 173.2811 173.3982 173.5131

 M, (1/n)           1.030    1.029    1.042    1.041    1.040    1.039    1.038    1.038
 (dLV/dLP)t      -1.02042 -1.01996 -1.03017 -1.02949 -1.02883 -1.02818 -1.02755 -1.02693
 (dLV/dLT)p        1.2437   1.2377   1.3702   1.3611   1.3522   1.3436   1.3351   1.3269
 Cp, KJ/(KG)(K)   44.0748  43.4621  56.8338  55.8963  54.9827  54.0925  53.2253  52.3804
 GAMMAs            1.3567   1.3600   1.3047   1.3077   1.3107   1.3138   1.3169   1.3200
 SON VEL,M/SEC     7159.4   7177.8   6884.0   6902.3   6920.6   6938.9   6957.2   6975.5

 TRANSPORT PROPERTIES (GASES ONLY)
   CONDUCTIVITY IN UNITS OF MILLIWATTS/(CM)(K)

 VISC,MILLIPOISE  0.53633  0.53674  0.53499  0.53518  0.53539  0.53562  0.53586  0.53612

  WITH EQUILIBRIUM REACTIONS

 Cp, KJ/(KG)(K)   44.0748  43.4621  56.8338  55.8963  54.9827  54.0925  53.2253  52.3804
 CONDUCTIVITY     38.9101  38.3677  50.5838  49.7436  48.9252  48.1279  47.3515  46.5954
 PRANDTL NUMBER    0.6075   0.6080   0.6011   0.6014   0.6017   0.6020   0.6023   0.6027

  WITH FROZEN REACTIONS

 Cp, KJ/(KG)(K)   20.5952  20.5962  20.5742  20.5759  20.5775  20.5791  20.5806  20.5821
 CONDUCTIVITY     16.2795  16.2991  16.0949  16.1107  16.1268  16.1432  16.1598  16.1766
 PRANDTL NUMBER    0.6785   0.6782   0.6839   0.6835   0.6832   0.6828   0.6825   0.6821

 MASS FRACTIONS

 *H               0.95734  0.95835  0.93550  0.93705  0.93856  0.94004  0.94147  0.94287
 *H2              0.04266  0.04165  0.06450  0.06295  0.06144  0.05996  0.05852  0.05713

  * THERMODYNAMIC PROPERTIES FITTED TO 20000.K

 NOTE. WEIGHT FRACTION OF FUEL IN TOTAL FUELS AND OF OXIDANT IN TOTAL OXIDANTS









               THERMODYNAMIC EQUILIBRIUM PROPERTIES AT ASSIGNED

                           TEMPERATURE AND PRESSURE

 CASE =                

             REACTANT                    WT FRACTION      ENERGY      TEMP
                                          (SEE NOTE)     KJ/KG-MOL      K  
 FUEL        H2                           1.0000000         0.000      0.000
 OXIDANT     H2                           1.0000000         0.000      0.000

 O/F=    1.00000  %FUEL= 50.000000  R,EQ.RATIO= 0.000000  PHI,EQ.RATIO=-1.000000

 THERMODYNAMIC PROPERTIES

 P, BAR           0.49000  0.49000  0.49000  0.49000  0.49000  0.49000  0.49000  0.49000
 T, K             4610.00  4620.00  4630.00  4640.00  4650.00  4660.00  4670.00  4680.00
 RHO, KG/CU M    1.3255-3 1.3217-3 1.3180-3 1.3143-3 1.3106-3 1.3070-3 1.3034-3 1.2999-3
 H, KJ/KG        292363.0 292874.5 293378.2 293874.1 294362.5 294843.7 295317.7 295784.8
 U, KJ/KG        255395.3 255801.3 256200.0 256591.6 256976.1 257353.9 257725.1 258089.8
 G, KJ/KG       -508052.5-509789.4-511527.3-513266.3-515006.3-516747.4-518489.5-520232.7
 S, KJ/(KG)(K)   173.6259 173.7368 173.8457 173.9527 174.0578 174.1612 174.2628 174.3627

 M, (1/n)           1.037    1.036    1.035    1.035    1.034    1.033    1.033    1.032
 (dLV/dLP)t      -1.02633 -1.02574 -1.02516 -1.02460 -1.02405 -1.02351 -1.02298 -1.02247
 (dLV/dLT)p        1.3189   1.3111   1.3034   1.2960   1.2888   1.2817   1.2749   1.2682
 Cp, KJ/(KG)(K)   51.5575  50.7561  49.9756  49.2156  48.4756  47.7551  47.0537  46.3710
 GAMMAs            1.3231   1.3263   1.3295   1.3327   1.3359   1.3391   1.3424   1.3457
 SON VEL,M/SEC     6993.8   7012.1   7030.4   7048.8   7067.1   7085.5   7103.8   7122.1

 TRANSPORT PROPERTIES (GASES ONLY)
   CONDUCTIVITY IN UNITS OF MILLIWATTS/(CM)(K)

 VISC,MILLIPOISE  0.53638  0.53667  0.53696  0.53727  0.53760  0.53793  0.53828  0.53864

  WITH EQUILIBRIUM REACTIONS

 Cp, KJ/(KG)(K)   51.5575  50.7561  49.9756  49.2156  48.4756  47.7551  47.0537  46.3710
 CONDUCTIVITY     45.8591  45.1423  44.4444  43.7651  43.1038  42.4603  41.8340  41.2245
 PRANDTL NUMBER    0.6030   0.6034   0.6038   0.6042   0.6046   0.6050   0.6054   0.6059

  WITH FROZEN REACTIONS

 Cp, KJ/(KG)(K)   20.5835  20.5849  20.5863  20.5876  20.5888  20.5900  20.5912  20.5923
 CONDUCTIVITY     16.1937  16.2110  16.2286  16.2463  16.2643  16.2825  16.3009  16.3195
 PRANDTL NUMBER    0.6818   0.6815   0.6811   0.6808   0.6805   0.6802   0.6800   0.6797

 MASS FRACTIONS

 *H               0.94424  0.94556  0.94686  0.94812  0.94934  0.95054  0.95170  0.95283
 *H2              0.05576  0.05444  0.05314  0.05188  0.05066  0.04946  0.04830  0.04716

  * THERMODYNAMIC PROPERTIES FITTED TO 20000.K

 NOTE. WEIGHT FRACTION OF FUEL IN TOTAL FUELS AND OF OXIDANT IN TOTAL OXIDANTS









               THERMODYNAMIC EQUILIBRIUM PROPERTIES AT ASSIGNED

                           TEMPERATURE AND PRESSURE

 CASE =                

             REACTANT                    WT FRACTION      ENERGY      TEMP
                                          (SEE NOTE)     KJ/KG-MOL      K  
 FUEL        H2                           1.0000000         0.000      0.000
 OXIDANT     H2                           1.0000000         0.000      0.000

 O/F=    1.00000  %FUEL= 50.000000  R,EQ.RATIO= 0.000000  PHI,EQ.RATIO=-1.000000

 THERMODYNAMIC PROPERTIES

 P, BAR           0.49000
 T, K             4690.00
 RHO, KG/CU M    1.2964-3
 H, KJ/KG        296245.2
 U, KJ/KG        258448.3
 G, KJ/KG       -521976.8
 S, KJ/(KG)(K)   174.4610

 M, (1/n)           1.032
 (dLV/dLP)t      -1.02197
 (dLV/dLT)p        1.2616
 Cp, KJ/(KG)(K)   45.7064
 GAMMAs            1.3490
 SON VEL,M/SEC     7140.5

 TRANSPORT PROPERTIES (GASES ONLY)
   CONDUCTIVITY IN UNITS OF MILLIWATTS/(CM)(K)

 VISC,MILLIPOISE  0.53901

  WITH EQUILIBRIUM REACTIONS

 Cp, KJ/(KG)(K)   45.7064
 CONDUCTIVITY     40.6314
 PRANDTL NUMBER    0.6063

  WITH FROZEN REACTIONS

 Cp, KJ/(KG)(K)   20.5934
 CONDUCTIVITY     16.3383
 PRANDTL NUMBER    0.6794

 MASS FRACTIONS

 *H               0.95394
 *H2              0.04606

  * THERMODYNAMIC PROPERTIES FITTED TO 20000.K

 NOTE. WEIGHT FRACTION OF FUEL IN TOTAL FUELS AND OF OXIDANT IN TOTAL OXIDANTS



  
