
 *******************************************************************************

         NASA-GLENN CHEMICAL EQUILIBRIUM PROGRAM CEA2, MAY 21, 2004
                   BY  BONNIE MCBRIDE AND SANFORD GORDON
      REFS: NASA RP-1311, PART I, 1994 AND NASA RP-1311, PART II, 1996

 *******************************************************************************



  prob tp ions
  p,bar= 280.0,310.0,350.0,390.0,440.0,490.0,540.0,600.0,670.0,740.0,825.0,910.0
  t,k= 450,455,460,465,470,475,480,485,490,495,500,505,510,515,520
  
  
  reac
  fuel H2                wt%=100.0000
  oxid H2                wt%=100.0000
  
  output short
  
  output massf
  
  output siunits
  
  output transport
  
 end





               THERMODYNAMIC EQUILIBRIUM PROPERTIES AT ASSIGNED

                           TEMPERATURE AND PRESSURE

 CASE =                

             REACTANT                    WT FRACTION      ENERGY      TEMP
                                          (SEE NOTE)     KJ/KG-MOL      K  
 FUEL        H2                           1.0000000         0.000      0.000
 OXIDANT     H2                           1.0000000         0.000      0.000

 O/F=    1.00000  %FUEL= 50.000000  R,EQ.RATIO= 0.000000  PHI,EQ.RATIO=-1.000000

 THERMODYNAMIC PROPERTIES

 P, BAR            280.00   280.00   280.00   280.00   280.00   280.00   280.00   280.00
 T, K              450.00   455.00   460.00   465.00   470.00   475.00   480.00   485.00
 RHO, KG/CU M    1.5086 1 1.4920 1 1.4758 1 1.4599 1 1.4444 1 1.4292 1 1.4143 1 1.3997 1
 H, KJ/KG         2192.80  2265.30  2337.81  2410.33  2482.85  2555.38  2627.91  2700.45
 U, KJ/KG          336.78   388.66   440.55   492.45   544.35   596.25   648.16   700.08
 G, KJ/KG        -19194.4 -19432.4 -19671.2 -19910.8 -20151.2 -20392.4 -20634.3 -20877.0
 S, KJ/(KG)(K)    47.5271  47.6872  47.8457  48.0024  48.1576  48.3111  48.4630  48.6133

 M, (1/n)           2.016    2.016    2.016    2.016    2.016    2.016    2.016    2.016
 (dLV/dLP)t      -1.00000 -0.99999 -0.99999 -0.99999 -0.99999 -0.99999 -0.99999 -0.99999
 (dLV/dLT)p        1.0000   1.0000   1.0000   1.0000   1.0000   1.0000   1.0000   1.0000
 Cp, KJ/(KG)(K)   14.5003  14.5015  14.5028  14.5040  14.5051  14.5062  14.5073  14.5083
 GAMMAs            1.3975   1.3975   1.3974   1.3974   1.3973   1.3973   1.3973   1.3972
 SON VEL,M/SEC     1610.5   1619.4   1628.3   1637.1   1645.8   1654.5   1663.2   1671.8

 TRANSPORT PROPERTIES (GASES ONLY)
   CONDUCTIVITY IN UNITS OF MILLIWATTS/(CM)(K)

 VISC,MILLIPOISE  0.08045  0.10715  0.11674  0.11993  0.12139  0.12241  0.12332  0.12421

  WITH EQUILIBRIUM REACTIONS

 Cp, KJ/(KG)(K)   14.5003  14.5015  14.5028  14.5040  14.5051  14.5062  14.5073  14.5083
 CONDUCTIVITY      0.9599   1.8240   2.3180   2.4900   2.5490   2.5777   2.5988   2.6179
 PRANDTL NUMBER    1.2152   0.8519   0.7304   0.6986   0.6908   0.6889   0.6884   0.6884

  WITH FROZEN REACTIONS

 Cp, KJ/(KG)(K)   14.5003  14.5015  14.5028  14.5040  14.5051  14.5062  14.5073  14.5083
 CONDUCTIVITY      0.9599   1.8240   2.3180   2.4900   2.5490   2.5777   2.5988   2.6179
 PRANDTL NUMBER    1.2152   0.8519   0.7304   0.6986   0.6908   0.6889   0.6884   0.6884

 MASS FRACTIONS

 *H2              1.00000  1.00000  1.00000  1.00000  1.00000  1.00000  1.00000  1.00000

  * THERMODYNAMIC PROPERTIES FITTED TO 20000.K

 NOTE. WEIGHT FRACTION OF FUEL IN TOTAL FUELS AND OF OXIDANT IN TOTAL OXIDANTS









               THERMODYNAMIC EQUILIBRIUM PROPERTIES AT ASSIGNED

                           TEMPERATURE AND PRESSURE

 CASE =                

             REACTANT                    WT FRACTION      ENERGY      TEMP
                                          (SEE NOTE)     KJ/KG-MOL      K  
 FUEL        H2                           1.0000000         0.000      0.000
 OXIDANT     H2                           1.0000000         0.000      0.000

 O/F=    1.00000  %FUEL= 50.000000  R,EQ.RATIO= 0.000000  PHI,EQ.RATIO=-1.000000

 THERMODYNAMIC PROPERTIES

 P, BAR            280.00   280.00   280.00   280.00   280.00   280.00   280.00   310.00
 T, K              490.00   495.00   500.00   505.00   510.00   515.00   520.00   450.00
 RHO, KG/CU M    1.3855 1 1.3715 1 1.3577 1 1.3443 1 1.3311 1 1.3182 1 1.3055 1 1.6702 1
 H, KJ/KG         2773.00  2845.55  2918.10  2990.66  3063.23  3135.80  3208.38  2192.80
 U, KJ/KG          752.00   803.93   855.86   907.80   959.74  1011.69  1063.65   336.78
 G, KJ/KG        -21120.4 -21364.6 -21609.5 -21855.2 -22101.5 -22348.6 -22596.4 -19005.4
 S, KJ/(KG)(K)    48.7621  48.9094  49.0553  49.1997  49.3427  49.4843  49.6245  47.1072

 M, (1/n)           2.016    2.016    2.016    2.016    2.016    2.016    2.016    2.016
 (dLV/dLP)t      -0.99999 -0.99999 -0.99999 -0.99999 -0.99999 -0.99999 -0.99999 -0.99999
 (dLV/dLT)p        1.0000   1.0000   1.0000   1.0000   1.0000   1.0000   1.0000   1.0000
 Cp, KJ/(KG)(K)   14.5094  14.5105  14.5115  14.5126  14.5138  14.5149  14.5161  14.5002
 GAMMAs            1.3972   1.3971   1.3971   1.3970   1.3970   1.3970   1.3969   1.3975
 SON VEL,M/SEC     1680.4   1688.9   1697.4   1705.8   1714.2   1722.6   1730.9   1610.5

 TRANSPORT PROPERTIES (GASES ONLY)
   CONDUCTIVITY IN UNITS OF MILLIWATTS/(CM)(K)

 VISC,MILLIPOISE  0.12509  0.12596  0.12683  0.12769  0.12856  0.12942  0.13028  0.10072

  WITH EQUILIBRIUM REACTIONS

 Cp, KJ/(KG)(K)   14.5094  14.5105  14.5115  14.5126  14.5138  14.5149  14.5161  14.5002
 CONDUCTIVITY      2.6365   2.6549   2.6732   2.6915   2.7098   2.7280   2.7462   1.5691
 PRANDTL NUMBER    0.6884   0.6884   0.6885   0.6885   0.6886   0.6886   0.6886   0.9307

  WITH FROZEN REACTIONS

 Cp, KJ/(KG)(K)   14.5094  14.5105  14.5115  14.5126  14.5138  14.5149  14.5161  14.5002
 CONDUCTIVITY      2.6365   2.6549   2.6732   2.6915   2.7098   2.7280   2.7462   1.5691
 PRANDTL NUMBER    0.6884   0.6884   0.6885   0.6885   0.6886   0.6886   0.6886   0.9307

 MASS FRACTIONS

 *H2              1.00000  1.00000  1.00000  1.00000  1.00000  1.00000  1.00000  1.00000

  * THERMODYNAMIC PROPERTIES FITTED TO 20000.K

 NOTE. WEIGHT FRACTION OF FUEL IN TOTAL FUELS AND OF OXIDANT IN TOTAL OXIDANTS









               THERMODYNAMIC EQUILIBRIUM PROPERTIES AT ASSIGNED

                           TEMPERATURE AND PRESSURE

 CASE =                

             REACTANT                    WT FRACTION      ENERGY      TEMP
                                          (SEE NOTE)     KJ/KG-MOL      K  
 FUEL        H2                           1.0000000         0.000      0.000
 OXIDANT     H2                           1.0000000         0.000      0.000

 O/F=    1.00000  %FUEL= 50.000000  R,EQ.RATIO= 0.000000  PHI,EQ.RATIO=-1.000000

 THERMODYNAMIC PROPERTIES

 P, BAR            310.00   310.00   310.00   310.00   310.00   310.00   310.00   310.00
 T, K              455.00   460.00   465.00   470.00   475.00   480.00   485.00   490.00
 RHO, KG/CU M    1.6519 1 1.6339 1 1.6164 1 1.5992 1 1.5823 1 1.5659 1 1.5497 1 1.5339 1
 H, KJ/KG         2265.30  2337.81  2410.33  2482.85  2555.38  2627.91  2700.45  2773.00
 U, KJ/KG          388.66   440.55   492.45   544.35   596.25   648.16   700.08   752.00
 G, KJ/KG        -19241.3 -19478.1 -19715.6 -19953.9 -20193.0 -20432.8 -20673.4 -20914.7
 S, KJ/(KG)(K)    47.2674  47.4258  47.5826  47.7378  47.8913  48.0432  48.1935  48.3423

 M, (1/n)           2.016    2.016    2.016    2.016    2.016    2.016    2.016    2.016
 (dLV/dLP)t      -0.99999 -0.99999 -0.99999 -0.99999 -0.99999 -0.99999 -0.99999 -0.99999
 (dLV/dLT)p        1.0000   1.0000   1.0000   1.0000   1.0000   1.0000   1.0000   1.0000
 Cp, KJ/(KG)(K)   14.5015  14.5028  14.5039  14.5051  14.5062  14.5073  14.5083  14.5094
 GAMMAs            1.3975   1.3974   1.3974   1.3973   1.3973   1.3973   1.3972   1.3972
 SON VEL,M/SEC     1619.4   1628.3   1637.1   1645.8   1654.5   1663.2   1671.8   1680.4

 TRANSPORT PROPERTIES (GASES ONLY)
   CONDUCTIVITY IN UNITS OF MILLIWATTS/(CM)(K)

 VISC,MILLIPOISE  0.11430  0.11866  0.12041  0.12151  0.12244  0.12333  0.12421  0.12509

  WITH EQUILIBRIUM REACTIONS

 Cp, KJ/(KG)(K)   14.5015  14.5028  14.5039  14.5051  14.5062  14.5073  14.5083  14.5094
 CONDUCTIVITY      2.2033   2.4449   2.5239   2.5576   2.5799   2.5993   2.6180   2.6365
 PRANDTL NUMBER    0.7523   0.7039   0.6920   0.6891   0.6885   0.6883   0.6883   0.6884

  WITH FROZEN REACTIONS

 Cp, KJ/(KG)(K)   14.5015  14.5028  14.5039  14.5051  14.5062  14.5073  14.5083  14.5094
 CONDUCTIVITY      2.2033   2.4449   2.5239   2.5576   2.5799   2.5993   2.6180   2.6365
 PRANDTL NUMBER    0.7523   0.7039   0.6920   0.6891   0.6885   0.6883   0.6883   0.6884

 MASS FRACTIONS

 *H2              1.00000  1.00000  1.00000  1.00000  1.00000  1.00000  1.00000  1.00000

  * THERMODYNAMIC PROPERTIES FITTED TO 20000.K

 NOTE. WEIGHT FRACTION OF FUEL IN TOTAL FUELS AND OF OXIDANT IN TOTAL OXIDANTS









               THERMODYNAMIC EQUILIBRIUM PROPERTIES AT ASSIGNED

                           TEMPERATURE AND PRESSURE

 CASE =                

             REACTANT                    WT FRACTION      ENERGY      TEMP
                                          (SEE NOTE)     KJ/KG-MOL      K  
 FUEL        H2                           1.0000000         0.000      0.000
 OXIDANT     H2                           1.0000000         0.000      0.000

 O/F=    1.00000  %FUEL= 50.000000  R,EQ.RATIO= 0.000000  PHI,EQ.RATIO=-1.000000

 THERMODYNAMIC PROPERTIES

 P, BAR            310.00   310.00   310.00   310.00   310.00   310.00   350.00   350.00
 T, K              495.00   500.00   505.00   510.00   515.00   520.00   450.00   455.00
 RHO, KG/CU M    1.5184 1 1.5032 1 1.4883 1 1.4737 1 1.4594 1 1.4454 1 1.8858 1 1.8650 1
 H, KJ/KG         2845.55  2918.10  2990.66  3063.23  3135.80  3208.38  2192.80  2265.30
 U, KJ/KG          803.93   855.86   907.80   959.74  1011.69  1063.65   336.78   388.66
 G, KJ/KG        -21156.8 -21399.6 -21643.2 -21887.4 -22132.4 -22378.1 -18780.2 -19013.6
 S, KJ/(KG)(K)    48.4896  48.6355  48.7799  48.9229  49.0645  49.2047  46.6066  46.7668

 M, (1/n)           2.016    2.016    2.016    2.016    2.016    2.016    2.016    2.016
 (dLV/dLP)t      -0.99999 -0.99999 -0.99999 -0.99999 -0.99999 -0.99999 -0.99999 -0.99999
 (dLV/dLT)p        1.0000   1.0000   1.0000   1.0000   1.0000   1.0000   1.0000   1.0000
 Cp, KJ/(KG)(K)   14.5105  14.5115  14.5126  14.5138  14.5149  14.5161  14.5002  14.5015
 GAMMAs            1.3971   1.3971   1.3970   1.3970   1.3970   1.3969   1.3975   1.3975
 SON VEL,M/SEC     1688.9   1697.4   1705.8   1714.2   1722.6   1730.9   1610.5   1619.4

 TRANSPORT PROPERTIES (GASES ONLY)
   CONDUCTIVITY IN UNITS OF MILLIWATTS/(CM)(K)

 VISC,MILLIPOISE  0.12596  0.12683  0.12769  0.12856  0.12942  0.13028  0.10072  0.11430

  WITH EQUILIBRIUM REACTIONS

 Cp, KJ/(KG)(K)   14.5105  14.5115  14.5126  14.5138  14.5149  14.5161  14.5002  14.5015
 CONDUCTIVITY      2.6549   2.6732   2.6915   2.7098   2.7280   2.7462   1.5691   2.2033
 PRANDTL NUMBER    0.6884   0.6885   0.6885   0.6886   0.6886   0.6886   0.9307   0.7523

  WITH FROZEN REACTIONS

 Cp, KJ/(KG)(K)   14.5105  14.5115  14.5126  14.5138  14.5149  14.5161  14.5002  14.5015
 CONDUCTIVITY      2.6549   2.6732   2.6915   2.7098   2.7280   2.7462   1.5691   2.2033
 PRANDTL NUMBER    0.6884   0.6885   0.6885   0.6886   0.6886   0.6886   0.9307   0.7523

 MASS FRACTIONS

 *H2              1.00000  1.00000  1.00000  1.00000  1.00000  1.00000  1.00000  1.00000

  * THERMODYNAMIC PROPERTIES FITTED TO 20000.K

 NOTE. WEIGHT FRACTION OF FUEL IN TOTAL FUELS AND OF OXIDANT IN TOTAL OXIDANTS









               THERMODYNAMIC EQUILIBRIUM PROPERTIES AT ASSIGNED

                           TEMPERATURE AND PRESSURE

 CASE =                

             REACTANT                    WT FRACTION      ENERGY      TEMP
                                          (SEE NOTE)     KJ/KG-MOL      K  
 FUEL        H2                           1.0000000         0.000      0.000
 OXIDANT     H2                           1.0000000         0.000      0.000

 O/F=    1.00000  %FUEL= 50.000000  R,EQ.RATIO= 0.000000  PHI,EQ.RATIO=-1.000000

 THERMODYNAMIC PROPERTIES

 P, BAR            350.00   350.00   350.00   350.00   350.00   350.00   350.00   350.00
 T, K              460.00   465.00   470.00   475.00   480.00   485.00   490.00   495.00
 RHO, KG/CU M    1.8448 1 1.8249 1 1.8055 1 1.7865 1 1.7679 1 1.7497 1 1.7318 1 1.7143 1
 H, KJ/KG         2337.81  2410.33  2482.85  2555.38  2627.91  2700.45  2773.00  2845.55
 U, KJ/KG          440.55   492.45   544.35   596.25   648.16   700.08   752.00   803.93
 G, KJ/KG        -19247.8 -19482.8 -19718.6 -19955.2 -20192.5 -20430.6 -20669.5 -20909.0
 S, KJ/(KG)(K)    46.9253  47.0821  47.2372  47.3907  47.5426  47.6929  47.8418  47.9891

 M, (1/n)           2.016    2.016    2.016    2.016    2.016    2.016    2.016    2.016
 (dLV/dLP)t      -0.99999 -0.99999 -0.99999 -0.99999 -0.99999 -0.99999 -0.99999 -0.99999
 (dLV/dLT)p        1.0000   1.0000   1.0000   1.0000   1.0000   1.0000   1.0000   1.0000
 Cp, KJ/(KG)(K)   14.5028  14.5039  14.5051  14.5062  14.5073  14.5083  14.5094  14.5105
 GAMMAs            1.3974   1.3974   1.3973   1.3973   1.3973   1.3972   1.3972   1.3971
 SON VEL,M/SEC     1628.3   1637.1   1645.8   1654.5   1663.2   1671.8   1680.4   1688.9

 TRANSPORT PROPERTIES (GASES ONLY)
   CONDUCTIVITY IN UNITS OF MILLIWATTS/(CM)(K)

 VISC,MILLIPOISE  0.11866  0.12041  0.12151  0.12244  0.12333  0.12421  0.12509  0.12596

  WITH EQUILIBRIUM REACTIONS

 Cp, KJ/(KG)(K)   14.5028  14.5039  14.5051  14.5062  14.5073  14.5083  14.5094  14.5105
 CONDUCTIVITY      2.4449   2.5239   2.5576   2.5799   2.5993   2.6180   2.6365   2.6549
 PRANDTL NUMBER    0.7039   0.6920   0.6891   0.6885   0.6883   0.6883   0.6884   0.6884

  WITH FROZEN REACTIONS

 Cp, KJ/(KG)(K)   14.5028  14.5039  14.5051  14.5062  14.5073  14.5083  14.5094  14.5105
 CONDUCTIVITY      2.4449   2.5239   2.5576   2.5799   2.5993   2.6180   2.6365   2.6549
 PRANDTL NUMBER    0.7039   0.6920   0.6891   0.6885   0.6883   0.6883   0.6884   0.6884

 MASS FRACTIONS

 *H2              1.00000  1.00000  1.00000  1.00000  1.00000  1.00000  1.00000  1.00000

  * THERMODYNAMIC PROPERTIES FITTED TO 20000.K

 NOTE. WEIGHT FRACTION OF FUEL IN TOTAL FUELS AND OF OXIDANT IN TOTAL OXIDANTS









               THERMODYNAMIC EQUILIBRIUM PROPERTIES AT ASSIGNED

                           TEMPERATURE AND PRESSURE

 CASE =                

             REACTANT                    WT FRACTION      ENERGY      TEMP
                                          (SEE NOTE)     KJ/KG-MOL      K  
 FUEL        H2                           1.0000000         0.000      0.000
 OXIDANT     H2                           1.0000000         0.000      0.000

 O/F=    1.00000  %FUEL= 50.000000  R,EQ.RATIO= 0.000000  PHI,EQ.RATIO=-1.000000

 THERMODYNAMIC PROPERTIES

 P, BAR            350.00   350.00   350.00   350.00   350.00   390.00   390.00   390.00
 T, K              500.00   505.00   510.00   515.00   520.00   450.00   455.00   460.00
 RHO, KG/CU M    1.6972 1 1.6804 1 1.6639 1 1.6478 1 1.6319 1 2.1013 1 2.0782 1 2.0556 1
 H, KJ/KG         2918.10  2990.66  3063.23  3135.80  3208.38  2192.80  2265.30  2337.81
 U, KJ/KG          855.86   907.80   959.74  1011.69  1063.65   336.78   388.66   440.55
 G, KJ/KG        -21149.4 -21390.4 -21632.1 -21874.6 -22117.8 -18579.3 -18810.5 -19042.5
 S, KJ/(KG)(K)    48.1349  48.2793  48.4223  48.5639  48.7041  46.1603  46.3205  46.4790

 M, (1/n)           2.016    2.016    2.016    2.016    2.016    2.016    2.016    2.016
 (dLV/dLP)t      -0.99999 -0.99999 -0.99999 -0.99999 -0.99999 -0.99999 -0.99999 -0.99999
 (dLV/dLT)p        1.0000   1.0000   1.0000   1.0000   1.0000   1.0000   1.0000   1.0000
 Cp, KJ/(KG)(K)   14.5115  14.5126  14.5138  14.5149  14.5161  14.5002  14.5015  14.5028
 GAMMAs            1.3971   1.3970   1.3970   1.3970   1.3969   1.3975   1.3975   1.3974
 SON VEL,M/SEC     1697.4   1705.8   1714.2   1722.6   1730.9   1610.5   1619.4   1628.3

 TRANSPORT PROPERTIES (GASES ONLY)
   CONDUCTIVITY IN UNITS OF MILLIWATTS/(CM)(K)

 VISC,MILLIPOISE  0.12683  0.12769  0.12856  0.12942  0.13028  0.10072  0.11430  0.11866

  WITH EQUILIBRIUM REACTIONS

 Cp, KJ/(KG)(K)   14.5115  14.5126  14.5138  14.5149  14.5161  14.5002  14.5015  14.5028
 CONDUCTIVITY      2.6732   2.6915   2.7098   2.7280   2.7462   1.5691   2.2033   2.4449
 PRANDTL NUMBER    0.6885   0.6885   0.6886   0.6886   0.6886   0.9307   0.7523   0.7039

  WITH FROZEN REACTIONS

 Cp, KJ/(KG)(K)   14.5115  14.5126  14.5138  14.5149  14.5161  14.5002  14.5015  14.5028
 CONDUCTIVITY      2.6732   2.6915   2.7098   2.7280   2.7462   1.5691   2.2033   2.4449
 PRANDTL NUMBER    0.6885   0.6885   0.6886   0.6886   0.6886   0.9307   0.7523   0.7039

 MASS FRACTIONS

 *H2              1.00000  1.00000  1.00000  1.00000  1.00000  1.00000  1.00000  1.00000

  * THERMODYNAMIC PROPERTIES FITTED TO 20000.K

 NOTE. WEIGHT FRACTION OF FUEL IN TOTAL FUELS AND OF OXIDANT IN TOTAL OXIDANTS









               THERMODYNAMIC EQUILIBRIUM PROPERTIES AT ASSIGNED

                           TEMPERATURE AND PRESSURE

 CASE =                

             REACTANT                    WT FRACTION      ENERGY      TEMP
                                          (SEE NOTE)     KJ/KG-MOL      K  
 FUEL        H2                           1.0000000         0.000      0.000
 OXIDANT     H2                           1.0000000         0.000      0.000

 O/F=    1.00000  %FUEL= 50.000000  R,EQ.RATIO= 0.000000  PHI,EQ.RATIO=-1.000000

 THERMODYNAMIC PROPERTIES

 P, BAR            390.00   390.00   390.00   390.00   390.00   390.00   390.00   390.00
 T, K              465.00   470.00   475.00   480.00   485.00   490.00   495.00   500.00
 RHO, KG/CU M    2.0335 1 2.0119 1 1.9907 1 1.9699 1 1.9496 1 1.9297 1 1.9102 1 1.8911 1
 H, KJ/KG         2410.33  2482.85  2555.38  2627.91  2700.45  2773.00  2845.55  2918.10
 U, KJ/KG          492.45   544.35   596.25   648.16   700.08   752.00   803.93   855.86
 G, KJ/KG        -19275.3 -19508.9 -19743.2 -19978.3 -20214.2 -20450.8 -20688.1 -20926.2
 S, KJ/(KG)(K)    46.6357  46.7909  46.9444  47.0963  47.2466  47.3954  47.5427  47.6886

 M, (1/n)           2.016    2.016    2.016    2.016    2.016    2.016    2.016    2.016
 (dLV/dLP)t      -0.99999 -0.99999 -0.99999 -0.99999 -0.99999 -0.99999 -0.99999 -0.99999
 (dLV/dLT)p        1.0000   1.0000   1.0000   1.0000   1.0000   1.0000   1.0000   1.0000
 Cp, KJ/(KG)(K)   14.5039  14.5051  14.5062  14.5073  14.5083  14.5094  14.5105  14.5115
 GAMMAs            1.3974   1.3973   1.3973   1.3973   1.3972   1.3972   1.3971   1.3971
 SON VEL,M/SEC     1637.1   1645.8   1654.5   1663.2   1671.8   1680.4   1688.9   1697.4

 TRANSPORT PROPERTIES (GASES ONLY)
   CONDUCTIVITY IN UNITS OF MILLIWATTS/(CM)(K)

 VISC,MILLIPOISE  0.12041  0.12151  0.12244  0.12333  0.12421  0.12509  0.12596  0.12683

  WITH EQUILIBRIUM REACTIONS

 Cp, KJ/(KG)(K)   14.5039  14.5051  14.5062  14.5073  14.5083  14.5094  14.5105  14.5115
 CONDUCTIVITY      2.5239   2.5576   2.5799   2.5993   2.6180   2.6365   2.6549   2.6732
 PRANDTL NUMBER    0.6920   0.6891   0.6885   0.6883   0.6883   0.6884   0.6884   0.6885

  WITH FROZEN REACTIONS

 Cp, KJ/(KG)(K)   14.5039  14.5051  14.5062  14.5073  14.5083  14.5094  14.5105  14.5115
 CONDUCTIVITY      2.5239   2.5576   2.5799   2.5993   2.6180   2.6365   2.6549   2.6732
 PRANDTL NUMBER    0.6920   0.6891   0.6885   0.6883   0.6883   0.6884   0.6884   0.6885

 MASS FRACTIONS

 *H2              1.00000  1.00000  1.00000  1.00000  1.00000  1.00000  1.00000  1.00000

  * THERMODYNAMIC PROPERTIES FITTED TO 20000.K

 NOTE. WEIGHT FRACTION OF FUEL IN TOTAL FUELS AND OF OXIDANT IN TOTAL OXIDANTS









               THERMODYNAMIC EQUILIBRIUM PROPERTIES AT ASSIGNED

                           TEMPERATURE AND PRESSURE

 CASE =                

             REACTANT                    WT FRACTION      ENERGY      TEMP
                                          (SEE NOTE)     KJ/KG-MOL      K  
 FUEL        H2                           1.0000000         0.000      0.000
 OXIDANT     H2                           1.0000000         0.000      0.000

 O/F=    1.00000  %FUEL= 50.000000  R,EQ.RATIO= 0.000000  PHI,EQ.RATIO=-1.000000

 THERMODYNAMIC PROPERTIES

 P, BAR            390.00   390.00   390.00   390.00   440.00   440.00   440.00   440.00
 T, K              505.00   510.00   515.00   520.00   450.00   455.00   460.00   465.00
 RHO, KG/CU M    1.8724 1 1.8541 1 1.8361 1 1.8184 1 2.3707 1 2.3446 1 2.3191 1 2.2942 1
 H, KJ/KG         2990.66  3063.23  3135.80  3208.38  2192.80  2265.30  2337.81  2410.33
 U, KJ/KG          907.80   959.74  1011.69  1063.65   336.78   388.66   440.55   492.45
 G, KJ/KG        -21165.0 -21404.5 -21644.8 -21885.7 -18355.4 -18584.1 -18813.6 -19043.9
 S, KJ/(KG)(K)    47.8330  47.9760  48.1176  48.2578  45.6628  45.8230  45.9814  46.1382

 M, (1/n)           2.016    2.016    2.016    2.016    2.016    2.016    2.016    2.016
 (dLV/dLP)t      -0.99999 -0.99999 -0.99999 -0.99999 -0.99999 -0.99999 -0.99999 -0.99999
 (dLV/dLT)p        1.0000   1.0000   1.0000   1.0000   1.0000   1.0000   1.0000   1.0000
 Cp, KJ/(KG)(K)   14.5126  14.5138  14.5149  14.5161  14.5002  14.5015  14.5028  14.5039
 GAMMAs            1.3970   1.3970   1.3970   1.3969   1.3975   1.3975   1.3974   1.3974
 SON VEL,M/SEC     1705.8   1714.2   1722.6   1730.9   1610.5   1619.4   1628.3   1637.1

 TRANSPORT PROPERTIES (GASES ONLY)
   CONDUCTIVITY IN UNITS OF MILLIWATTS/(CM)(K)

 VISC,MILLIPOISE  0.12769  0.12856  0.12942  0.13028  0.10072  0.11430  0.11866  0.12041

  WITH EQUILIBRIUM REACTIONS

 Cp, KJ/(KG)(K)   14.5126  14.5138  14.5149  14.5161  14.5002  14.5015  14.5028  14.5039
 CONDUCTIVITY      2.6915   2.7098   2.7280   2.7462   1.5691   2.2033   2.4449   2.5239
 PRANDTL NUMBER    0.6885   0.6886   0.6886   0.6886   0.9307   0.7523   0.7039   0.6920

  WITH FROZEN REACTIONS

 Cp, KJ/(KG)(K)   14.5126  14.5138  14.5149  14.5161  14.5002  14.5015  14.5028  14.5039
 CONDUCTIVITY      2.6915   2.7098   2.7280   2.7462   1.5691   2.2033   2.4449   2.5239
 PRANDTL NUMBER    0.6885   0.6886   0.6886   0.6886   0.9307   0.7523   0.7039   0.6920

 MASS FRACTIONS

 *H2              1.00000  1.00000  1.00000  1.00000  1.00000  1.00000  1.00000  1.00000

  * THERMODYNAMIC PROPERTIES FITTED TO 20000.K

 NOTE. WEIGHT FRACTION OF FUEL IN TOTAL FUELS AND OF OXIDANT IN TOTAL OXIDANTS









               THERMODYNAMIC EQUILIBRIUM PROPERTIES AT ASSIGNED

                           TEMPERATURE AND PRESSURE

 CASE =                

             REACTANT                    WT FRACTION      ENERGY      TEMP
                                          (SEE NOTE)     KJ/KG-MOL      K  
 FUEL        H2                           1.0000000         0.000      0.000
 OXIDANT     H2                           1.0000000         0.000      0.000

 O/F=    1.00000  %FUEL= 50.000000  R,EQ.RATIO= 0.000000  PHI,EQ.RATIO=-1.000000

 THERMODYNAMIC PROPERTIES

 P, BAR            440.00   440.00   440.00   440.00   440.00   440.00   440.00   440.00
 T, K              470.00   475.00   480.00   485.00   490.00   495.00   500.00   505.00
 RHO, KG/CU M    2.2698 1 2.2459 1 2.2225 1 2.1996 1 2.1771 1 2.1552 1 2.1336 1 2.1125 1
 H, KJ/KG         2482.85  2555.38  2627.91  2700.45  2773.00  2845.55  2918.10  2990.66
 U, KJ/KG          544.35   596.25   648.16   700.08   752.00   803.93   855.86   907.80
 G, KJ/KG        -19275.0 -19506.9 -19739.5 -19972.9 -20207.0 -20441.8 -20677.4 -20913.7
 S, KJ/(KG)(K)    46.2933  46.4468  46.5987  46.7491  46.8979  47.0452  47.1911  47.3355

 M, (1/n)           2.016    2.016    2.016    2.016    2.016    2.016    2.016    2.016
 (dLV/dLP)t      -0.99999 -0.99999 -0.99999 -0.99999 -0.99999 -0.99999 -0.99999 -0.99999
 (dLV/dLT)p        1.0000   1.0000   1.0000   1.0000   1.0000   1.0000   1.0000   1.0000
 Cp, KJ/(KG)(K)   14.5051  14.5062  14.5073  14.5083  14.5094  14.5105  14.5115  14.5126
 GAMMAs            1.3973   1.3973   1.3973   1.3972   1.3972   1.3971   1.3971   1.3970
 SON VEL,M/SEC     1645.8   1654.5   1663.2   1671.8   1680.4   1688.9   1697.4   1705.8

 TRANSPORT PROPERTIES (GASES ONLY)
   CONDUCTIVITY IN UNITS OF MILLIWATTS/(CM)(K)

 VISC,MILLIPOISE  0.12151  0.12244  0.12333  0.12421  0.12509  0.12596  0.12683  0.12769

  WITH EQUILIBRIUM REACTIONS

 Cp, KJ/(KG)(K)   14.5051  14.5062  14.5073  14.5083  14.5094  14.5105  14.5115  14.5126
 CONDUCTIVITY      2.5576   2.5799   2.5993   2.6180   2.6365   2.6549   2.6732   2.6915
 PRANDTL NUMBER    0.6891   0.6885   0.6883   0.6883   0.6884   0.6884   0.6885   0.6885

  WITH FROZEN REACTIONS

 Cp, KJ/(KG)(K)   14.5051  14.5062  14.5073  14.5083  14.5094  14.5105  14.5115  14.5126
 CONDUCTIVITY      2.5576   2.5799   2.5993   2.6180   2.6365   2.6549   2.6732   2.6915
 PRANDTL NUMBER    0.6891   0.6885   0.6883   0.6883   0.6884   0.6884   0.6885   0.6885

 MASS FRACTIONS

 *H2              1.00000  1.00000  1.00000  1.00000  1.00000  1.00000  1.00000  1.00000

  * THERMODYNAMIC PROPERTIES FITTED TO 20000.K

 NOTE. WEIGHT FRACTION OF FUEL IN TOTAL FUELS AND OF OXIDANT IN TOTAL OXIDANTS









               THERMODYNAMIC EQUILIBRIUM PROPERTIES AT ASSIGNED

                           TEMPERATURE AND PRESSURE

 CASE =                

             REACTANT                    WT FRACTION      ENERGY      TEMP
                                          (SEE NOTE)     KJ/KG-MOL      K  
 FUEL        H2                           1.0000000         0.000      0.000
 OXIDANT     H2                           1.0000000         0.000      0.000

 O/F=    1.00000  %FUEL= 50.000000  R,EQ.RATIO= 0.000000  PHI,EQ.RATIO=-1.000000

 THERMODYNAMIC PROPERTIES

 P, BAR            440.00   440.00   440.00   490.00   490.00   490.00   490.00   490.00
 T, K              510.00   515.00   520.00   450.00   455.00   460.00   465.00   470.00
 RHO, KG/CU M    2.0918 1 2.0715 1 2.0515 1 2.6401 1 2.6110 1 2.5827 1 2.5549 1 2.5277 1
 H, KJ/KG         3063.23  3135.80  3208.38  2192.80  2265.30  2337.81  2410.33  2482.85
 U, KJ/KG          959.74  1011.69  1063.65   336.78   388.66   440.55   492.45   544.35
 G, KJ/KG        -21150.8 -21388.5 -21627.0 -18155.7 -18382.2 -18609.4 -18837.5 -19066.4
 S, KJ/(KG)(K)    47.4784  47.6200  47.7603  45.2188  45.3790  45.5375  45.6943  45.8494

 M, (1/n)           2.016    2.016    2.016    2.016    2.016    2.016    2.016    2.016
 (dLV/dLP)t      -0.99999 -0.99999 -0.99999 -0.99999 -0.99999 -0.99999 -0.99999 -0.99999
 (dLV/dLT)p        1.0000   1.0000   1.0000   1.0000   1.0000   1.0000   1.0000   1.0000
 Cp, KJ/(KG)(K)   14.5138  14.5149  14.5161  14.5002  14.5015  14.5028  14.5039  14.5051
 GAMMAs            1.3970   1.3970   1.3969   1.3975   1.3975   1.3974   1.3974   1.3973
 SON VEL,M/SEC     1714.2   1722.6   1730.9   1610.5   1619.4   1628.3   1637.1   1645.8

 TRANSPORT PROPERTIES (GASES ONLY)
   CONDUCTIVITY IN UNITS OF MILLIWATTS/(CM)(K)

 VISC,MILLIPOISE  0.12856  0.12942  0.13028  0.10072  0.11430  0.11866  0.12041  0.12151

  WITH EQUILIBRIUM REACTIONS

 Cp, KJ/(KG)(K)   14.5138  14.5149  14.5161  14.5002  14.5015  14.5028  14.5039  14.5051
 CONDUCTIVITY      2.7098   2.7280   2.7462   1.5691   2.2033   2.4449   2.5239   2.5576
 PRANDTL NUMBER    0.6886   0.6886   0.6886   0.9307   0.7523   0.7039   0.6920   0.6891

  WITH FROZEN REACTIONS

 Cp, KJ/(KG)(K)   14.5138  14.5149  14.5161  14.5002  14.5015  14.5028  14.5039  14.5051
 CONDUCTIVITY      2.7098   2.7280   2.7462   1.5691   2.2033   2.4449   2.5239   2.5576
 PRANDTL NUMBER    0.6886   0.6886   0.6886   0.9307   0.7523   0.7039   0.6920   0.6891

 MASS FRACTIONS

 *H2              1.00000  1.00000  1.00000  1.00000  1.00000  1.00000  1.00000  1.00000

  * THERMODYNAMIC PROPERTIES FITTED TO 20000.K

 NOTE. WEIGHT FRACTION OF FUEL IN TOTAL FUELS AND OF OXIDANT IN TOTAL OXIDANTS









               THERMODYNAMIC EQUILIBRIUM PROPERTIES AT ASSIGNED

                           TEMPERATURE AND PRESSURE

 CASE =                

             REACTANT                    WT FRACTION      ENERGY      TEMP
                                          (SEE NOTE)     KJ/KG-MOL      K  
 FUEL        H2                           1.0000000         0.000      0.000
 OXIDANT     H2                           1.0000000         0.000      0.000

 O/F=    1.00000  %FUEL= 50.000000  R,EQ.RATIO= 0.000000  PHI,EQ.RATIO=-1.000000

 THERMODYNAMIC PROPERTIES

 P, BAR            490.00   490.00   490.00   490.00   490.00   490.00   490.00   490.00
 T, K              475.00   480.00   485.00   490.00   495.00   500.00   505.00   510.00
 RHO, KG/CU M    2.5011 1 2.4751 1 2.4495 1 2.4245 1 2.4001 1 2.3761 1 2.3525 1 2.3295 1
 H, KJ/KG         2555.38  2627.91  2700.45  2773.00  2845.55  2918.10  2990.66  3063.23
 U, KJ/KG          596.25   648.16   700.08   752.00   803.93   855.86   907.80   959.74
 G, KJ/KG        -19296.0 -19526.4 -19757.6 -19989.5 -20222.1 -20455.5 -20689.6 -20924.4
 S, KJ/(KG)(K)    46.0029  46.1548  46.3052  46.4540  46.6013  46.7471  46.8915  47.0345

 M, (1/n)           2.016    2.016    2.016    2.016    2.016    2.016    2.016    2.016
 (dLV/dLP)t      -0.99999 -0.99999 -0.99999 -0.99999 -0.99999 -0.99999 -0.99999 -0.99999
 (dLV/dLT)p        1.0000   1.0000   1.0000   1.0000   1.0000   1.0000   1.0000   1.0000
 Cp, KJ/(KG)(K)   14.5062  14.5073  14.5083  14.5094  14.5105  14.5115  14.5126  14.5138
 GAMMAs            1.3973   1.3973   1.3972   1.3972   1.3971   1.3971   1.3970   1.3970
 SON VEL,M/SEC     1654.5   1663.2   1671.8   1680.4   1688.9   1697.4   1705.8   1714.2

 TRANSPORT PROPERTIES (GASES ONLY)
   CONDUCTIVITY IN UNITS OF MILLIWATTS/(CM)(K)

 VISC,MILLIPOISE  0.12244  0.12333  0.12421  0.12509  0.12596  0.12683  0.12769  0.12856

  WITH EQUILIBRIUM REACTIONS

 Cp, KJ/(KG)(K)   14.5062  14.5073  14.5083  14.5094  14.5105  14.5115  14.5126  14.5138
 CONDUCTIVITY      2.5799   2.5993   2.6180   2.6365   2.6549   2.6732   2.6915   2.7098
 PRANDTL NUMBER    0.6885   0.6883   0.6883   0.6884   0.6884   0.6885   0.6885   0.6886

  WITH FROZEN REACTIONS

 Cp, KJ/(KG)(K)   14.5062  14.5073  14.5083  14.5094  14.5105  14.5115  14.5126  14.5138
 CONDUCTIVITY      2.5799   2.5993   2.6180   2.6365   2.6549   2.6732   2.6915   2.7098
 PRANDTL NUMBER    0.6885   0.6883   0.6883   0.6884   0.6884   0.6885   0.6885   0.6886

 MASS FRACTIONS

 *H2              1.00000  1.00000  1.00000  1.00000  1.00000  1.00000  1.00000  1.00000

  * THERMODYNAMIC PROPERTIES FITTED TO 20000.K

 NOTE. WEIGHT FRACTION OF FUEL IN TOTAL FUELS AND OF OXIDANT IN TOTAL OXIDANTS









               THERMODYNAMIC EQUILIBRIUM PROPERTIES AT ASSIGNED

                           TEMPERATURE AND PRESSURE

 CASE =                

             REACTANT                    WT FRACTION      ENERGY      TEMP
                                          (SEE NOTE)     KJ/KG-MOL      K  
 FUEL        H2                           1.0000000         0.000      0.000
 OXIDANT     H2                           1.0000000         0.000      0.000

 O/F=    1.00000  %FUEL= 50.000000  R,EQ.RATIO= 0.000000  PHI,EQ.RATIO=-1.000000

 THERMODYNAMIC PROPERTIES

 P, BAR            490.00   490.00   540.00   540.00   540.00   540.00   540.00   540.00
 T, K              515.00   520.00   450.00   455.00   460.00   465.00   470.00   475.00
 RHO, KG/CU M    2.3069 1 2.2847 1 2.9095 1 2.8775 1 2.8462 1 2.8156 1 2.7857 1 2.7563 1
 H, KJ/KG         3135.80  3208.38  2192.80  2265.30  2337.81  2410.33  2482.85  2555.38
 U, KJ/KG         1011.69  1063.65   336.78   388.66   440.55   492.45   544.35   596.25
 G, KJ/KG        -21159.9 -21396.1 -17975.3 -18199.8 -18425.1 -18651.2 -18878.0 -19105.6
 S, KJ/(KG)(K)    47.1761  47.3164  44.8181  44.9783  45.1368  45.2935  45.4487  45.6022

 M, (1/n)           2.016    2.016    2.016    2.016    2.016    2.016    2.016    2.016
 (dLV/dLP)t      -0.99999 -0.99999 -0.99999 -0.99999 -0.99999 -0.99999 -0.99999 -0.99999
 (dLV/dLT)p        1.0000   1.0000   1.0000   1.0000   1.0000   1.0000   1.0000   1.0000
 Cp, KJ/(KG)(K)   14.5149  14.5161  14.5002  14.5015  14.5028  14.5039  14.5051  14.5062
 GAMMAs            1.3970   1.3969   1.3975   1.3975   1.3974   1.3974   1.3973   1.3973
 SON VEL,M/SEC     1722.6   1730.9   1610.5   1619.4   1628.3   1637.1   1645.8   1654.5

 TRANSPORT PROPERTIES (GASES ONLY)
   CONDUCTIVITY IN UNITS OF MILLIWATTS/(CM)(K)

 VISC,MILLIPOISE  0.12942  0.13028  0.10072  0.11430  0.11866  0.12041  0.12151  0.12244

  WITH EQUILIBRIUM REACTIONS

 Cp, KJ/(KG)(K)   14.5149  14.5161  14.5002  14.5015  14.5028  14.5039  14.5051  14.5062
 CONDUCTIVITY      2.7280   2.7462   1.5691   2.2033   2.4449   2.5239   2.5576   2.5799
 PRANDTL NUMBER    0.6886   0.6886   0.9307   0.7523   0.7039   0.6920   0.6891   0.6885

  WITH FROZEN REACTIONS

 Cp, KJ/(KG)(K)   14.5149  14.5161  14.5002  14.5015  14.5028  14.5039  14.5051  14.5062
 CONDUCTIVITY      2.7280   2.7462   1.5691   2.2033   2.4449   2.5239   2.5576   2.5799
 PRANDTL NUMBER    0.6886   0.6886   0.9307   0.7523   0.7039   0.6920   0.6891   0.6885

 MASS FRACTIONS

 *H2              1.00000  1.00000  1.00000  1.00000  1.00000  1.00000  1.00000  1.00000

  * THERMODYNAMIC PROPERTIES FITTED TO 20000.K

 NOTE. WEIGHT FRACTION OF FUEL IN TOTAL FUELS AND OF OXIDANT IN TOTAL OXIDANTS









               THERMODYNAMIC EQUILIBRIUM PROPERTIES AT ASSIGNED

                           TEMPERATURE AND PRESSURE

 CASE =                

             REACTANT                    WT FRACTION      ENERGY      TEMP
                                          (SEE NOTE)     KJ/KG-MOL      K  
 FUEL        H2                           1.0000000         0.000      0.000
 OXIDANT     H2                           1.0000000         0.000      0.000

 O/F=    1.00000  %FUEL= 50.000000  R,EQ.RATIO= 0.000000  PHI,EQ.RATIO=-1.000000

 THERMODYNAMIC PROPERTIES

 P, BAR            540.00   540.00   540.00   540.00   540.00   540.00   540.00   540.00
 T, K              480.00   485.00   490.00   495.00   500.00   505.00   510.00   515.00
 RHO, KG/CU M    2.7276 1 2.6995 1 2.6720 1 2.6450 1 2.6185 1 2.5926 1 2.5672 1 2.5422 1
 H, KJ/KG         2627.91  2700.45  2773.00  2845.55  2918.10  2990.66  3063.23  3135.80
 U, KJ/KG          648.16   700.08   752.00   803.93   855.86   907.80   959.74  1011.69
 G, KJ/KG        -19334.0 -19563.2 -19793.1 -20023.7 -20255.1 -20487.2 -20720.0 -20953.5
 S, KJ/(KG)(K)    45.7541  45.9044  46.0532  46.2005  46.3464  46.4908  46.6338  46.7754

 M, (1/n)           2.016    2.016    2.016    2.016    2.016    2.016    2.016    2.016
 (dLV/dLP)t      -0.99999 -0.99999 -0.99999 -0.99999 -0.99999 -0.99999 -0.99999 -0.99999
 (dLV/dLT)p        1.0000   1.0000   1.0000   1.0000   1.0000   1.0000   1.0000   1.0000
 Cp, KJ/(KG)(K)   14.5073  14.5083  14.5094  14.5105  14.5115  14.5126  14.5138  14.5149
 GAMMAs            1.3973   1.3972   1.3972   1.3971   1.3971   1.3970   1.3970   1.3970
 SON VEL,M/SEC     1663.2   1671.8   1680.4   1688.9   1697.4   1705.8   1714.2   1722.6

 TRANSPORT PROPERTIES (GASES ONLY)
   CONDUCTIVITY IN UNITS OF MILLIWATTS/(CM)(K)

 VISC,MILLIPOISE  0.12333  0.12421  0.12509  0.12596  0.12683  0.12769  0.12856  0.12942

  WITH EQUILIBRIUM REACTIONS

 Cp, KJ/(KG)(K)   14.5073  14.5083  14.5094  14.5105  14.5115  14.5126  14.5138  14.5149
 CONDUCTIVITY      2.5993   2.6180   2.6365   2.6549   2.6732   2.6915   2.7098   2.7280
 PRANDTL NUMBER    0.6883   0.6883   0.6884   0.6884   0.6885   0.6885   0.6886   0.6886

  WITH FROZEN REACTIONS

 Cp, KJ/(KG)(K)   14.5073  14.5083  14.5094  14.5105  14.5115  14.5126  14.5138  14.5149
 CONDUCTIVITY      2.5993   2.6180   2.6365   2.6549   2.6732   2.6915   2.7098   2.7280
 PRANDTL NUMBER    0.6883   0.6883   0.6884   0.6884   0.6885   0.6885   0.6886   0.6886

 MASS FRACTIONS

 *H2              1.00000  1.00000  1.00000  1.00000  1.00000  1.00000  1.00000  1.00000

  * THERMODYNAMIC PROPERTIES FITTED TO 20000.K

 NOTE. WEIGHT FRACTION OF FUEL IN TOTAL FUELS AND OF OXIDANT IN TOTAL OXIDANTS









               THERMODYNAMIC EQUILIBRIUM PROPERTIES AT ASSIGNED

                           TEMPERATURE AND PRESSURE

 CASE =                

             REACTANT                    WT FRACTION      ENERGY      TEMP
                                          (SEE NOTE)     KJ/KG-MOL      K  
 FUEL        H2                           1.0000000         0.000      0.000
 OXIDANT     H2                           1.0000000         0.000      0.000

 O/F=    1.00000  %FUEL= 50.000000  R,EQ.RATIO= 0.000000  PHI,EQ.RATIO=-1.000000

 THERMODYNAMIC PROPERTIES

 P, BAR            540.00   600.00   600.00   600.00   600.00   600.00   600.00   600.00
 T, K              520.00   450.00   455.00   460.00   465.00   470.00   475.00   480.00
 RHO, KG/CU M    2.5178 1 3.2327 1 3.1972 1 3.1625 1 3.1284 1 3.0952 1 3.0626 1 3.0307 1
 H, KJ/KG         3208.38  2192.80  2265.30  2337.81  2410.33  2482.85  2555.38  2627.91
 U, KJ/KG         1063.65   336.78   388.66   440.55   492.45   544.35   596.25   648.16
 G, KJ/KG        -21187.7 -17779.8 -18002.1 -18225.2 -18449.1 -18673.8 -18899.2 -19125.5
 S, KJ/(KG)(K)    46.9156  44.3835  44.5437  44.7022  44.8590  45.0141  45.1676  45.3195

 M, (1/n)           2.016    2.016    2.016    2.016    2.016    2.016    2.016    2.016
 (dLV/dLP)t      -0.99999 -0.99999 -0.99999 -0.99999 -0.99999 -0.99999 -0.99999 -0.99999
 (dLV/dLT)p        1.0000   1.0000   1.0000   1.0000   1.0000   1.0000   1.0000   1.0000
 Cp, KJ/(KG)(K)   14.5161  14.5002  14.5015  14.5028  14.5039  14.5051  14.5062  14.5073
 GAMMAs            1.3969   1.3975   1.3975   1.3974   1.3974   1.3973   1.3973   1.3973
 SON VEL,M/SEC     1730.9   1610.5   1619.4   1628.3   1637.1   1645.8   1654.5   1663.2

 TRANSPORT PROPERTIES (GASES ONLY)
   CONDUCTIVITY IN UNITS OF MILLIWATTS/(CM)(K)

 VISC,MILLIPOISE  0.13028  0.10072  0.11430  0.11866  0.12041  0.12151  0.12244  0.12333

  WITH EQUILIBRIUM REACTIONS

 Cp, KJ/(KG)(K)   14.5161  14.5002  14.5015  14.5028  14.5039  14.5051  14.5062  14.5073
 CONDUCTIVITY      2.7462   1.5691   2.2033   2.4449   2.5239   2.5576   2.5799   2.5993
 PRANDTL NUMBER    0.6886   0.9307   0.7523   0.7039   0.6920   0.6891   0.6885   0.6883

  WITH FROZEN REACTIONS

 Cp, KJ/(KG)(K)   14.5161  14.5002  14.5015  14.5028  14.5039  14.5051  14.5062  14.5073
 CONDUCTIVITY      2.7462   1.5691   2.2033   2.4449   2.5239   2.5576   2.5799   2.5993
 PRANDTL NUMBER    0.6886   0.9307   0.7523   0.7039   0.6920   0.6891   0.6885   0.6883

 MASS FRACTIONS

 *H2              1.00000  1.00000  1.00000  1.00000  1.00000  1.00000  1.00000  1.00000

  * THERMODYNAMIC PROPERTIES FITTED TO 20000.K

 NOTE. WEIGHT FRACTION OF FUEL IN TOTAL FUELS AND OF OXIDANT IN TOTAL OXIDANTS









               THERMODYNAMIC EQUILIBRIUM PROPERTIES AT ASSIGNED

                           TEMPERATURE AND PRESSURE

 CASE =                

             REACTANT                    WT FRACTION      ENERGY      TEMP
                                          (SEE NOTE)     KJ/KG-MOL      K  
 FUEL        H2                           1.0000000         0.000      0.000
 OXIDANT     H2                           1.0000000         0.000      0.000

 O/F=    1.00000  %FUEL= 50.000000  R,EQ.RATIO= 0.000000  PHI,EQ.RATIO=-1.000000

 THERMODYNAMIC PROPERTIES

 P, BAR            600.00   600.00   600.00   600.00   600.00   600.00   600.00   600.00
 T, K              485.00   490.00   495.00   500.00   505.00   510.00   515.00   520.00
 RHO, KG/CU M    2.9994 1 2.9688 1 2.9388 1 2.9095 1 2.8807 1 2.8524 1 2.8247 1 2.7976 1
 H, KJ/KG         2700.45  2773.00  2845.55  2918.10  2990.66  3063.23  3135.80  3208.38
 U, KJ/KG          700.08   752.00   803.93   855.86   907.80   959.74  1011.69  1063.65
 G, KJ/KG        -19352.4 -19580.1 -19808.6 -20037.8 -20267.7 -20498.4 -20729.7 -20961.8
 S, KJ/(KG)(K)    45.4699  45.6187  45.7660  45.9118  46.0562  46.1992  46.3408  46.4811

 M, (1/n)           2.016    2.016    2.016    2.016    2.016    2.016    2.016    2.016
 (dLV/dLP)t      -0.99999 -0.99999 -0.99999 -0.99999 -0.99999 -0.99999 -0.99999 -0.99999
 (dLV/dLT)p        1.0000   1.0000   1.0000   1.0000   1.0000   1.0000   1.0000   1.0000
 Cp, KJ/(KG)(K)   14.5083  14.5094  14.5105  14.5115  14.5126  14.5138  14.5149  14.5161
 GAMMAs            1.3972   1.3972   1.3971   1.3971   1.3970   1.3970   1.3970   1.3969
 SON VEL,M/SEC     1671.8   1680.4   1688.9   1697.4   1705.8   1714.2   1722.6   1730.9

 TRANSPORT PROPERTIES (GASES ONLY)
   CONDUCTIVITY IN UNITS OF MILLIWATTS/(CM)(K)

 VISC,MILLIPOISE  0.12421  0.12509  0.12596  0.12683  0.12769  0.12856  0.12942  0.13028

  WITH EQUILIBRIUM REACTIONS

 Cp, KJ/(KG)(K)   14.5083  14.5094  14.5105  14.5115  14.5126  14.5138  14.5149  14.5161
 CONDUCTIVITY      2.6180   2.6365   2.6549   2.6732   2.6915   2.7098   2.7280   2.7462
 PRANDTL NUMBER    0.6883   0.6884   0.6884   0.6885   0.6885   0.6886   0.6886   0.6886

  WITH FROZEN REACTIONS

 Cp, KJ/(KG)(K)   14.5083  14.5094  14.5105  14.5115  14.5126  14.5138  14.5149  14.5161
 CONDUCTIVITY      2.6180   2.6365   2.6549   2.6732   2.6915   2.7098   2.7280   2.7462
 PRANDTL NUMBER    0.6883   0.6884   0.6884   0.6885   0.6885   0.6886   0.6886   0.6886

 MASS FRACTIONS

 *H2              1.00000  1.00000  1.00000  1.00000  1.00000  1.00000  1.00000  1.00000

  * THERMODYNAMIC PROPERTIES FITTED TO 20000.K

 NOTE. WEIGHT FRACTION OF FUEL IN TOTAL FUELS AND OF OXIDANT IN TOTAL OXIDANTS









               THERMODYNAMIC EQUILIBRIUM PROPERTIES AT ASSIGNED

                           TEMPERATURE AND PRESSURE

 CASE =                

             REACTANT                    WT FRACTION      ENERGY      TEMP
                                          (SEE NOTE)     KJ/KG-MOL      K  
 FUEL        H2                           1.0000000         0.000      0.000
 OXIDANT     H2                           1.0000000         0.000      0.000

 O/F=    1.00000  %FUEL= 50.000000  R,EQ.RATIO= 0.000000  PHI,EQ.RATIO=-1.000000

 THERMODYNAMIC PROPERTIES

 P, BAR            670.00   670.00   670.00   670.00   670.00   670.00   670.00   670.00
 T, K              450.00   455.00   460.00   465.00   470.00   475.00   480.00   485.00
 RHO, KG/CU M    3.6099 1 3.5702 1 3.5314 1 3.4934 1 3.4563 1 3.4199 1 3.3843 1 3.3494 1
 H, KJ/KG         2192.80  2265.30  2337.81  2410.33  2482.85  2555.38  2627.91  2700.45
 U, KJ/KG          336.78   388.66   440.55   492.45   544.35   596.25   648.16   700.08
 G, KJ/KG        -17575.0 -17795.0 -18015.8 -18237.5 -18459.9 -18683.0 -18907.0 -19131.7
 S, KJ/(KG)(K)    43.9284  44.0886  44.2471  44.4039  44.5590  44.7125  44.8644  45.0147

 M, (1/n)           2.016    2.016    2.016    2.016    2.016    2.016    2.016    2.016
 (dLV/dLP)t      -0.99999 -0.99999 -0.99999 -0.99999 -0.99999 -0.99999 -0.99999 -0.99999
 (dLV/dLT)p        1.0000   1.0000   1.0000   1.0000   1.0000   1.0000   1.0000   1.0000
 Cp, KJ/(KG)(K)   14.5002  14.5015  14.5028  14.5039  14.5051  14.5062  14.5073  14.5083
 GAMMAs            1.3975   1.3975   1.3974   1.3974   1.3973   1.3973   1.3973   1.3972
 SON VEL,M/SEC     1610.5   1619.4   1628.3   1637.1   1645.8   1654.5   1663.2   1671.8

 TRANSPORT PROPERTIES (GASES ONLY)
   CONDUCTIVITY IN UNITS OF MILLIWATTS/(CM)(K)

 VISC,MILLIPOISE  0.10072  0.11430  0.11866  0.12041  0.12151  0.12244  0.12333  0.12421

  WITH EQUILIBRIUM REACTIONS

 Cp, KJ/(KG)(K)   14.5002  14.5015  14.5028  14.5039  14.5051  14.5062  14.5073  14.5083
 CONDUCTIVITY      1.5691   2.2033   2.4449   2.5239   2.5576   2.5799   2.5993   2.6180
 PRANDTL NUMBER    0.9307   0.7523   0.7039   0.6920   0.6891   0.6885   0.6883   0.6883

  WITH FROZEN REACTIONS

 Cp, KJ/(KG)(K)   14.5002  14.5015  14.5028  14.5039  14.5051  14.5062  14.5073  14.5083
 CONDUCTIVITY      1.5691   2.2033   2.4449   2.5239   2.5576   2.5799   2.5993   2.6180
 PRANDTL NUMBER    0.9307   0.7523   0.7039   0.6920   0.6891   0.6885   0.6883   0.6883

 MASS FRACTIONS

 *H2              1.00000  1.00000  1.00000  1.00000  1.00000  1.00000  1.00000  1.00000

  * THERMODYNAMIC PROPERTIES FITTED TO 20000.K

 NOTE. WEIGHT FRACTION OF FUEL IN TOTAL FUELS AND OF OXIDANT IN TOTAL OXIDANTS









               THERMODYNAMIC EQUILIBRIUM PROPERTIES AT ASSIGNED

                           TEMPERATURE AND PRESSURE

 CASE =                

             REACTANT                    WT FRACTION      ENERGY      TEMP
                                          (SEE NOTE)     KJ/KG-MOL      K  
 FUEL        H2                           1.0000000         0.000      0.000
 OXIDANT     H2                           1.0000000         0.000      0.000

 O/F=    1.00000  %FUEL= 50.000000  R,EQ.RATIO= 0.000000  PHI,EQ.RATIO=-1.000000

 THERMODYNAMIC PROPERTIES

 P, BAR            670.00   670.00   670.00   670.00   670.00   670.00   670.00   740.00
 T, K              490.00   495.00   500.00   505.00   510.00   515.00   520.00   450.00
 RHO, KG/CU M    3.3152 1 3.2817 1 3.2489 1 3.2167 1 3.1852 1 3.1543 1 3.1239 1 3.9870 1
 H, KJ/KG         2773.00  2845.55  2918.10  2990.66  3063.23  3135.80  3208.38  2192.80
 U, KJ/KG          752.00   803.93   855.86   907.80   959.74  1011.69  1063.65   336.78
 G, KJ/KG        -19357.1 -19583.3 -19810.2 -20037.9 -20266.2 -20495.3 -20725.1 -17390.5
 S, KJ/(KG)(K)    45.1635  45.3108  45.4567  45.6011  45.7441  45.8857  46.0259  43.5185

 M, (1/n)           2.016    2.016    2.016    2.016    2.016    2.016    2.016    2.016
 (dLV/dLP)t      -0.99999 -0.99999 -0.99999 -0.99999 -0.99999 -0.99999 -0.99999 -0.99999
 (dLV/dLT)p        1.0000   1.0000   1.0000   1.0000   1.0000   1.0000   1.0000   1.0000
 Cp, KJ/(KG)(K)   14.5094  14.5105  14.5115  14.5126  14.5138  14.5149  14.5161  14.5002
 GAMMAs            1.3972   1.3971   1.3971   1.3970   1.3970   1.3970   1.3969   1.3975
 SON VEL,M/SEC     1680.4   1688.9   1697.4   1705.8   1714.2   1722.6   1730.9   1610.5

 TRANSPORT PROPERTIES (GASES ONLY)
   CONDUCTIVITY IN UNITS OF MILLIWATTS/(CM)(K)

 VISC,MILLIPOISE  0.12509  0.12596  0.12683  0.12769  0.12856  0.12942  0.13028  0.10072

  WITH EQUILIBRIUM REACTIONS

 Cp, KJ/(KG)(K)   14.5094  14.5105  14.5115  14.5126  14.5138  14.5149  14.5161  14.5002
 CONDUCTIVITY      2.6365   2.6549   2.6732   2.6915   2.7098   2.7280   2.7462   1.5691
 PRANDTL NUMBER    0.6884   0.6884   0.6885   0.6885   0.6886   0.6886   0.6886   0.9307

  WITH FROZEN REACTIONS

 Cp, KJ/(KG)(K)   14.5094  14.5105  14.5115  14.5126  14.5138  14.5149  14.5161  14.5002
 CONDUCTIVITY      2.6365   2.6549   2.6732   2.6915   2.7098   2.7280   2.7462   1.5691
 PRANDTL NUMBER    0.6884   0.6884   0.6885   0.6885   0.6886   0.6886   0.6886   0.9307

 MASS FRACTIONS

 *H2              1.00000  1.00000  1.00000  1.00000  1.00000  1.00000  1.00000  1.00000

  * THERMODYNAMIC PROPERTIES FITTED TO 20000.K

 NOTE. WEIGHT FRACTION OF FUEL IN TOTAL FUELS AND OF OXIDANT IN TOTAL OXIDANTS









               THERMODYNAMIC EQUILIBRIUM PROPERTIES AT ASSIGNED

                           TEMPERATURE AND PRESSURE

 CASE =                

             REACTANT                    WT FRACTION      ENERGY      TEMP
                                          (SEE NOTE)     KJ/KG-MOL      K  
 FUEL        H2                           1.0000000         0.000      0.000
 OXIDANT     H2                           1.0000000         0.000      0.000

 O/F=    1.00000  %FUEL= 50.000000  R,EQ.RATIO= 0.000000  PHI,EQ.RATIO=-1.000000

 THERMODYNAMIC PROPERTIES

 P, BAR            740.00   740.00   740.00   740.00   740.00   740.00   740.00   740.00
 T, K              455.00   460.00   465.00   470.00   475.00   480.00   485.00   490.00
 RHO, KG/CU M    3.9432 1 3.9004 1 3.8584 1 3.8174 1 3.7772 1 3.7378 1 3.6993 1 3.6616 1
 H, KJ/KG         2265.30  2337.81  2410.33  2482.85  2555.38  2627.91  2700.45  2773.00
 U, KJ/KG          388.66   440.55   492.45   544.35   596.25   648.16   700.08   752.00
 G, KJ/KG        -17608.5 -17827.3 -18046.9 -18267.2 -18488.4 -18710.3 -18932.9 -19156.3
 S, KJ/(KG)(K)    43.6787  43.8372  43.9940  44.1491  44.3026  44.4545  44.6049  44.7537

 M, (1/n)           2.016    2.016    2.016    2.016    2.016    2.016    2.016    2.016
 (dLV/dLP)t      -0.99999 -0.99999 -0.99999 -0.99999 -0.99999 -0.99999 -0.99999 -0.99999
 (dLV/dLT)p        1.0000   1.0000   1.0000   1.0000   1.0000   1.0000   1.0000   1.0000
 Cp, KJ/(KG)(K)   14.5015  14.5028  14.5039  14.5051  14.5062  14.5073  14.5083  14.5094
 GAMMAs            1.3975   1.3974   1.3974   1.3973   1.3973   1.3973   1.3972   1.3972
 SON VEL,M/SEC     1619.4   1628.3   1637.1   1645.8   1654.5   1663.2   1671.8   1680.4

 TRANSPORT PROPERTIES (GASES ONLY)
   CONDUCTIVITY IN UNITS OF MILLIWATTS/(CM)(K)

 VISC,MILLIPOISE  0.11430  0.11866  0.12041  0.12151  0.12244  0.12333  0.12421  0.12509

  WITH EQUILIBRIUM REACTIONS

 Cp, KJ/(KG)(K)   14.5015  14.5028  14.5039  14.5051  14.5062  14.5073  14.5083  14.5094
 CONDUCTIVITY      2.2033   2.4449   2.5239   2.5576   2.5799   2.5993   2.6180   2.6365
 PRANDTL NUMBER    0.7523   0.7039   0.6920   0.6891   0.6885   0.6883   0.6883   0.6884

  WITH FROZEN REACTIONS

 Cp, KJ/(KG)(K)   14.5015  14.5028  14.5039  14.5051  14.5062  14.5073  14.5083  14.5094
 CONDUCTIVITY      2.2033   2.4449   2.5239   2.5576   2.5799   2.5993   2.6180   2.6365
 PRANDTL NUMBER    0.7523   0.7039   0.6920   0.6891   0.6885   0.6883   0.6883   0.6884

 MASS FRACTIONS

 *H2              1.00000  1.00000  1.00000  1.00000  1.00000  1.00000  1.00000  1.00000

  * THERMODYNAMIC PROPERTIES FITTED TO 20000.K

 NOTE. WEIGHT FRACTION OF FUEL IN TOTAL FUELS AND OF OXIDANT IN TOTAL OXIDANTS









               THERMODYNAMIC EQUILIBRIUM PROPERTIES AT ASSIGNED

                           TEMPERATURE AND PRESSURE

 CASE =                

             REACTANT                    WT FRACTION      ENERGY      TEMP
                                          (SEE NOTE)     KJ/KG-MOL      K  
 FUEL        H2                           1.0000000         0.000      0.000
 OXIDANT     H2                           1.0000000         0.000      0.000

 O/F=    1.00000  %FUEL= 50.000000  R,EQ.RATIO= 0.000000  PHI,EQ.RATIO=-1.000000

 THERMODYNAMIC PROPERTIES

 P, BAR            740.00   740.00   740.00   740.00   740.00   740.00   825.00   825.00
 T, K              495.00   500.00   505.00   510.00   515.00   520.00   450.00   455.00
 RHO, KG/CU M    3.6246 1 3.5883 1 3.5528 1 3.5180 1 3.4838 1 3.4503 1 4.4450 1 4.3962 1
 H, KJ/KG         2845.55  2918.10  2990.66  3063.23  3135.80  3208.38  2192.80  2265.30
 U, KJ/KG          803.93   855.86   907.80   959.74  1011.69  1063.65   336.78   388.66
 G, KJ/KG        -19380.4 -19605.3 -19830.9 -20057.2 -20284.2 -20512.0 -17188.7 -17404.5
 S, KJ/(KG)(K)    44.9010  45.0468  45.1912  45.3342  45.4758  45.6161  43.0701  43.2303

 M, (1/n)           2.016    2.016    2.016    2.016    2.016    2.016    2.016    2.016
 (dLV/dLP)t      -0.99999 -0.99999 -0.99999 -0.99999 -0.99999 -0.99999 -0.99999 -0.99999
 (dLV/dLT)p        1.0000   1.0000   1.0000   1.0000   1.0000   1.0000   1.0000   1.0000
 Cp, KJ/(KG)(K)   14.5105  14.5115  14.5126  14.5138  14.5149  14.5161  14.5002  14.5015
 GAMMAs            1.3971   1.3971   1.3970   1.3970   1.3970   1.3969   1.3975   1.3975
 SON VEL,M/SEC     1688.9   1697.4   1705.8   1714.2   1722.6   1730.9   1610.5   1619.4

 TRANSPORT PROPERTIES (GASES ONLY)
   CONDUCTIVITY IN UNITS OF MILLIWATTS/(CM)(K)

 VISC,MILLIPOISE  0.12596  0.12683  0.12769  0.12856  0.12942  0.13028  0.10072  0.11430

  WITH EQUILIBRIUM REACTIONS

 Cp, KJ/(KG)(K)   14.5105  14.5115  14.5126  14.5138  14.5149  14.5161  14.5002  14.5015
 CONDUCTIVITY      2.6549   2.6732   2.6915   2.7098   2.7280   2.7462   1.5691   2.2033
 PRANDTL NUMBER    0.6884   0.6885   0.6885   0.6886   0.6886   0.6886   0.9307   0.7523

  WITH FROZEN REACTIONS

 Cp, KJ/(KG)(K)   14.5105  14.5115  14.5126  14.5138  14.5149  14.5161  14.5002  14.5015
 CONDUCTIVITY      2.6549   2.6732   2.6915   2.7098   2.7280   2.7462   1.5691   2.2033
 PRANDTL NUMBER    0.6884   0.6885   0.6885   0.6886   0.6886   0.6886   0.9307   0.7523

 MASS FRACTIONS

 *H2              1.00000  1.00000  1.00000  1.00000  1.00000  1.00000  1.00000  1.00000

  * THERMODYNAMIC PROPERTIES FITTED TO 20000.K

 NOTE. WEIGHT FRACTION OF FUEL IN TOTAL FUELS AND OF OXIDANT IN TOTAL OXIDANTS









               THERMODYNAMIC EQUILIBRIUM PROPERTIES AT ASSIGNED

                           TEMPERATURE AND PRESSURE

 CASE =                

             REACTANT                    WT FRACTION      ENERGY      TEMP
                                          (SEE NOTE)     KJ/KG-MOL      K  
 FUEL        H2                           1.0000000         0.000      0.000
 OXIDANT     H2                           1.0000000         0.000      0.000

 O/F=    1.00000  %FUEL= 50.000000  R,EQ.RATIO= 0.000000  PHI,EQ.RATIO=-1.000000

 THERMODYNAMIC PROPERTIES

 P, BAR            825.00   825.00   825.00   825.00   825.00   825.00   825.00   825.00
 T, K              460.00   465.00   470.00   475.00   480.00   485.00   490.00   495.00
 RHO, KG/CU M    4.3484 1 4.3016 1 4.2559 1 4.2111 1 4.1672 1 4.1242 1 4.0821 1 4.0409 1
 H, KJ/KG         2337.81  2410.33  2482.85  2555.38  2627.91  2700.45  2773.00  2845.55
 U, KJ/KG          440.55   492.45   544.35   596.25   648.16   700.08   752.00   803.93
 G, KJ/KG        -17621.0 -17838.3 -18056.5 -18275.3 -18495.0 -18715.4 -18936.6 -19158.4
 S, KJ/(KG)(K)    43.3887  43.5455  43.7006  43.8541  44.0060  44.1564  44.3052  44.4525

 M, (1/n)           2.016    2.016    2.016    2.016    2.016    2.016    2.016    2.016
 (dLV/dLP)t      -0.99999 -0.99999 -0.99999 -0.99999 -0.99999 -0.99999 -0.99999 -0.99999
 (dLV/dLT)p        1.0000   1.0000   1.0000   1.0000   1.0000   1.0000   1.0000   1.0000
 Cp, KJ/(KG)(K)   14.5028  14.5039  14.5051  14.5062  14.5073  14.5083  14.5094  14.5105
 GAMMAs            1.3974   1.3974   1.3973   1.3973   1.3973   1.3972   1.3972   1.3971
 SON VEL,M/SEC     1628.3   1637.1   1645.8   1654.5   1663.2   1671.8   1680.4   1688.9

 TRANSPORT PROPERTIES (GASES ONLY)
   CONDUCTIVITY IN UNITS OF MILLIWATTS/(CM)(K)

 VISC,MILLIPOISE  0.11866  0.12041  0.12151  0.12244  0.12333  0.12421  0.12509  0.12596

  WITH EQUILIBRIUM REACTIONS

 Cp, KJ/(KG)(K)   14.5028  14.5039  14.5051  14.5062  14.5073  14.5083  14.5094  14.5105
 CONDUCTIVITY      2.4449   2.5239   2.5576   2.5799   2.5993   2.6180   2.6365   2.6549
 PRANDTL NUMBER    0.7039   0.6920   0.6891   0.6885   0.6883   0.6883   0.6884   0.6884

  WITH FROZEN REACTIONS

 Cp, KJ/(KG)(K)   14.5028  14.5039  14.5051  14.5062  14.5073  14.5083  14.5094  14.5105
 CONDUCTIVITY      2.4449   2.5239   2.5576   2.5799   2.5993   2.6180   2.6365   2.6549
 PRANDTL NUMBER    0.7039   0.6920   0.6891   0.6885   0.6883   0.6883   0.6884   0.6884

 MASS FRACTIONS

 *H2              1.00000  1.00000  1.00000  1.00000  1.00000  1.00000  1.00000  1.00000

  * THERMODYNAMIC PROPERTIES FITTED TO 20000.K

 NOTE. WEIGHT FRACTION OF FUEL IN TOTAL FUELS AND OF OXIDANT IN TOTAL OXIDANTS









               THERMODYNAMIC EQUILIBRIUM PROPERTIES AT ASSIGNED

                           TEMPERATURE AND PRESSURE

 CASE =                

             REACTANT                    WT FRACTION      ENERGY      TEMP
                                          (SEE NOTE)     KJ/KG-MOL      K  
 FUEL        H2                           1.0000000         0.000      0.000
 OXIDANT     H2                           1.0000000         0.000      0.000

 O/F=    1.00000  %FUEL= 50.000000  R,EQ.RATIO= 0.000000  PHI,EQ.RATIO=-1.000000

 THERMODYNAMIC PROPERTIES

 P, BAR            825.00   825.00   825.00   825.00   825.00   910.00   910.00   910.00
 T, K              500.00   505.00   510.00   515.00   520.00   450.00   455.00   460.00
 RHO, KG/CU M    4.0005 1 3.9609 1 3.9221 1 3.8840 1 3.8466 1 4.9030 1 4.8491 1 4.7964 1
 H, KJ/KG         2918.10  2990.66  3063.23  3135.80  3208.38  2192.80  2265.30  2337.81
 U, KJ/KG          855.86   907.80   959.74  1011.69  1063.65   336.78   388.66   440.55
 G, KJ/KG        -19381.1 -19604.4 -19828.5 -20053.3 -20278.8 -17006.7 -17220.4 -17435.0
 S, KJ/(KG)(K)    44.5984  44.7428  44.8857  45.0273  45.1676  42.6656  42.8258  42.9843

 M, (1/n)           2.016    2.016    2.016    2.016    2.016    2.016    2.016    2.016
 (dLV/dLP)t      -0.99999 -0.99999 -0.99999 -0.99999 -0.99999 -0.99999 -0.99999 -0.99999
 (dLV/dLT)p        1.0000   1.0000   1.0000   1.0000   1.0000   1.0000   1.0000   1.0000
 Cp, KJ/(KG)(K)   14.5115  14.5126  14.5138  14.5149  14.5161  14.5002  14.5015  14.5028
 GAMMAs            1.3971   1.3970   1.3970   1.3970   1.3969   1.3975   1.3975   1.3974
 SON VEL,M/SEC     1697.4   1705.8   1714.2   1722.6   1730.9   1610.5   1619.4   1628.3

 TRANSPORT PROPERTIES (GASES ONLY)
   CONDUCTIVITY IN UNITS OF MILLIWATTS/(CM)(K)

 VISC,MILLIPOISE  0.12683  0.12769  0.12856  0.12942  0.13028  0.10072  0.11430  0.11866

  WITH EQUILIBRIUM REACTIONS

 Cp, KJ/(KG)(K)   14.5115  14.5126  14.5138  14.5149  14.5161  14.5002  14.5015  14.5028
 CONDUCTIVITY      2.6732   2.6915   2.7098   2.7280   2.7462   1.5691   2.2033   2.4449
 PRANDTL NUMBER    0.6885   0.6885   0.6886   0.6886   0.6886   0.9307   0.7523   0.7039

  WITH FROZEN REACTIONS

 Cp, KJ/(KG)(K)   14.5115  14.5126  14.5138  14.5149  14.5161  14.5002  14.5015  14.5028
 CONDUCTIVITY      2.6732   2.6915   2.7098   2.7280   2.7462   1.5691   2.2033   2.4449
 PRANDTL NUMBER    0.6885   0.6885   0.6886   0.6886   0.6886   0.9307   0.7523   0.7039

 MASS FRACTIONS

 *H2              1.00000  1.00000  1.00000  1.00000  1.00000  1.00000  1.00000  1.00000

  * THERMODYNAMIC PROPERTIES FITTED TO 20000.K

 NOTE. WEIGHT FRACTION OF FUEL IN TOTAL FUELS AND OF OXIDANT IN TOTAL OXIDANTS









               THERMODYNAMIC EQUILIBRIUM PROPERTIES AT ASSIGNED

                           TEMPERATURE AND PRESSURE

 CASE =                

             REACTANT                    WT FRACTION      ENERGY      TEMP
                                          (SEE NOTE)     KJ/KG-MOL      K  
 FUEL        H2                           1.0000000         0.000      0.000
 OXIDANT     H2                           1.0000000         0.000      0.000

 O/F=    1.00000  %FUEL= 50.000000  R,EQ.RATIO= 0.000000  PHI,EQ.RATIO=-1.000000

 THERMODYNAMIC PROPERTIES

 P, BAR            910.00   910.00   910.00   910.00   910.00   910.00   910.00   910.00
 T, K              465.00   470.00   475.00   480.00   485.00   490.00   495.00   500.00
 RHO, KG/CU M    4.7448 1 4.6943 1 4.6449 1 4.5965 1 4.5492 1 4.5027 1 4.4572 1 4.4127 1
 H, KJ/KG         2410.33  2482.85  2555.38  2627.91  2700.45  2773.00  2845.55  2918.10
 U, KJ/KG          492.45   544.35   596.25   648.16   700.08   752.00   803.93   855.86
 G, KJ/KG        -17650.3 -17866.4 -18083.2 -18300.9 -18519.2 -18738.4 -18958.2 -19178.8
 S, KJ/(KG)(K)    43.1411  43.2962  43.4497  43.6016  43.7519  43.9007  44.0481  44.1939

 M, (1/n)           2.016    2.016    2.016    2.016    2.016    2.016    2.016    2.016
 (dLV/dLP)t      -0.99999 -0.99999 -0.99999 -0.99999 -0.99999 -0.99999 -0.99999 -0.99999
 (dLV/dLT)p        1.0000   1.0000   1.0000   1.0000   1.0000   1.0000   1.0000   1.0000
 Cp, KJ/(KG)(K)   14.5039  14.5051  14.5062  14.5073  14.5083  14.5094  14.5105  14.5115
 GAMMAs            1.3974   1.3973   1.3973   1.3973   1.3972   1.3972   1.3971   1.3971
 SON VEL,M/SEC     1637.1   1645.8   1654.5   1663.2   1671.8   1680.4   1688.9   1697.4

 TRANSPORT PROPERTIES (GASES ONLY)
   CONDUCTIVITY IN UNITS OF MILLIWATTS/(CM)(K)

 VISC,MILLIPOISE  0.12041  0.12151  0.12244  0.12333  0.12421  0.12509  0.12596  0.12683

  WITH EQUILIBRIUM REACTIONS

 Cp, KJ/(KG)(K)   14.5039  14.5051  14.5062  14.5073  14.5083  14.5094  14.5105  14.5115
 CONDUCTIVITY      2.5239   2.5576   2.5799   2.5993   2.6180   2.6365   2.6549   2.6732
 PRANDTL NUMBER    0.6920   0.6891   0.6885   0.6883   0.6883   0.6884   0.6884   0.6885

  WITH FROZEN REACTIONS

 Cp, KJ/(KG)(K)   14.5039  14.5051  14.5062  14.5073  14.5083  14.5094  14.5105  14.5115
 CONDUCTIVITY      2.5239   2.5576   2.5799   2.5993   2.6180   2.6365   2.6549   2.6732
 PRANDTL NUMBER    0.6920   0.6891   0.6885   0.6883   0.6883   0.6884   0.6884   0.6885

 MASS FRACTIONS

 *H2              1.00000  1.00000  1.00000  1.00000  1.00000  1.00000  1.00000  1.00000

  * THERMODYNAMIC PROPERTIES FITTED TO 20000.K

 NOTE. WEIGHT FRACTION OF FUEL IN TOTAL FUELS AND OF OXIDANT IN TOTAL OXIDANTS









               THERMODYNAMIC EQUILIBRIUM PROPERTIES AT ASSIGNED

                           TEMPERATURE AND PRESSURE

 CASE =                

             REACTANT                    WT FRACTION      ENERGY      TEMP
                                          (SEE NOTE)     KJ/KG-MOL      K  
 FUEL        H2                           1.0000000         0.000      0.000
 OXIDANT     H2                           1.0000000         0.000      0.000

 O/F=    1.00000  %FUEL= 50.000000  R,EQ.RATIO= 0.000000  PHI,EQ.RATIO=-1.000000

 THERMODYNAMIC PROPERTIES

 P, BAR            910.00   910.00   910.00   910.00
 T, K              505.00   510.00   515.00   520.00
 RHO, KG/CU M    4.3690 1 4.3262 1 4.2842 1 4.2430 1
 H, KJ/KG         2990.66  3063.23  3135.80  3208.38
 U, KJ/KG          907.80   959.74  1011.69  1063.65
 G, KJ/KG        -19400.2 -19622.2 -19845.0 -20068.5
 S, KJ/(KG)(K)    44.3383  44.4813  44.6229  44.7631

 M, (1/n)           2.016    2.016    2.016    2.016
 (dLV/dLP)t      -0.99999 -0.99999 -0.99999 -0.99999
 (dLV/dLT)p        1.0000   1.0000   1.0000   1.0000
 Cp, KJ/(KG)(K)   14.5126  14.5138  14.5149  14.5161
 GAMMAs            1.3970   1.3970   1.3970   1.3969
 SON VEL,M/SEC     1705.8   1714.2   1722.6   1730.9

 TRANSPORT PROPERTIES (GASES ONLY)
   CONDUCTIVITY IN UNITS OF MILLIWATTS/(CM)(K)

 VISC,MILLIPOISE  0.12769  0.12856  0.12942  0.13028

  WITH EQUILIBRIUM REACTIONS

 Cp, KJ/(KG)(K)   14.5126  14.5138  14.5149  14.5161
 CONDUCTIVITY      2.6915   2.7098   2.7280   2.7462
 PRANDTL NUMBER    0.6885   0.6886   0.6886   0.6886

  WITH FROZEN REACTIONS

 Cp, KJ/(KG)(K)   14.5126  14.5138  14.5149  14.5161
 CONDUCTIVITY      2.6915   2.7098   2.7280   2.7462
 PRANDTL NUMBER    0.6885   0.6886   0.6886   0.6886

 MASS FRACTIONS

 *H2              1.00000  1.00000  1.00000  1.00000

  * THERMODYNAMIC PROPERTIES FITTED TO 20000.K

 NOTE. WEIGHT FRACTION OF FUEL IN TOTAL FUELS AND OF OXIDANT IN TOTAL OXIDANTS



  
