
 *******************************************************************************

         NASA-GLENN CHEMICAL EQUILIBRIUM PROGRAM CEA2, MAY 21, 2004
                   BY  BONNIE MCBRIDE AND SANFORD GORDON
      REFS: NASA RP-1311, PART I, 1994 AND NASA RP-1311, PART II, 1996

 *******************************************************************************



  prob tp ions
  p,bar= 0.11,0.12,0.132,0.148,0.165,0.18,0.2,0.225,0.25,0.28,0.31,0.35,0.39,0.44
 ,0.49
  t,k= 600,605,610,615,620,625,630,635,640,645,650,655,660,665,670
  
  
  reac
  fuel H2                wt%=100.0000
  oxid H2                wt%=100.0000
  
  output short
  
  output massf
  
  output siunits
  
  output transport
  
 end





               THERMODYNAMIC EQUILIBRIUM PROPERTIES AT ASSIGNED

                           TEMPERATURE AND PRESSURE

 CASE =                

             REACTANT                    WT FRACTION      ENERGY      TEMP
                                          (SEE NOTE)     KJ/KG-MOL      K  
 FUEL        H2                           1.0000000         0.000      0.000
 OXIDANT     H2                           1.0000000         0.000      0.000

 O/F=    1.00000  %FUEL= 50.000000  R,EQ.RATIO= 0.000000  PHI,EQ.RATIO=-1.000000

 THERMODYNAMIC PROPERTIES

 P, BAR           0.11000  0.11000  0.11000  0.11000  0.11000  0.11000  0.11000  0.11000
 T, K              600.00   605.00   610.00   615.00   620.00   625.00   630.00   635.00
 RHO, KG/CU M    4.4450-3 4.4083-3 4.3721-3 4.3366-3 4.3016-3 4.2672-3 4.2333-3 4.2000-3
 H, KJ/KG         4370.65  4443.37  4516.11  4588.85  4661.62  4734.39  4807.18  4879.98
 U, KJ/KG         1895.95  1948.05  2000.17  2052.29  2104.43  2156.58  2208.75  2260.93
 G, KJ/KG        -46058.3 -46478.8 -46899.9 -47321.7 -47744.0 -48166.9 -48590.4 -49014.5
 S, KJ/(KG)(K)    84.0483  84.1689  84.2886  84.4074  84.5252  84.6421  84.7581  84.8732

 M, (1/n)           2.016    2.016    2.016    2.016    2.016    2.016    2.016    2.016
 (dLV/dLP)t      -1.00000 -1.00000 -1.00000 -1.00000 -1.00000 -1.00000 -1.00000 -1.00000
 (dLV/dLT)p        1.0000   1.0000   1.0000   1.0000   1.0000   1.0000   1.0000   1.0000
 Cp, KJ/(KG)(K)   14.5436  14.5460  14.5484  14.5509  14.5535  14.5562  14.5590  14.5618
 GAMMAs            1.3959   1.3958   1.3957   1.3956   1.3955   1.3954   1.3953   1.3952
 SON VEL,M/SEC     1858.6   1866.3   1873.9   1881.5   1889.1   1896.6   1904.1   1911.6

 TRANSPORT PROPERTIES (GASES ONLY)
   CONDUCTIVITY IN UNITS OF MILLIWATTS/(CM)(K)

 VISC,MILLIPOISE  0.14376  0.14460  0.14542  0.14625  0.14707  0.14789  0.14871  0.14952

  WITH EQUILIBRIUM REACTIONS

 Cp, KJ/(KG)(K)   14.5436  14.5460  14.5484  14.5509  14.5535  14.5562  14.5590  14.5618
 CONDUCTIVITY      3.0336   3.0518   3.0698   3.0876   3.1054   3.1232   3.1410   3.1587
 PRANDTL NUMBER    0.6892   0.6892   0.6892   0.6892   0.6892   0.6893   0.6893   0.6893

  WITH FROZEN REACTIONS

 Cp, KJ/(KG)(K)   14.5436  14.5460  14.5484  14.5509  14.5535  14.5562  14.5590  14.5618
 CONDUCTIVITY      3.0336   3.0518   3.0698   3.0876   3.1054   3.1232   3.1410   3.1587
 PRANDTL NUMBER    0.6892   0.6892   0.6892   0.6892   0.6892   0.6893   0.6893   0.6893

 MASS FRACTIONS

 *H2              1.00000  1.00000  1.00000  1.00000  1.00000  1.00000  1.00000  1.00000

  * THERMODYNAMIC PROPERTIES FITTED TO 20000.K

 NOTE. WEIGHT FRACTION OF FUEL IN TOTAL FUELS AND OF OXIDANT IN TOTAL OXIDANTS









               THERMODYNAMIC EQUILIBRIUM PROPERTIES AT ASSIGNED

                           TEMPERATURE AND PRESSURE

 CASE =                

             REACTANT                    WT FRACTION      ENERGY      TEMP
                                          (SEE NOTE)     KJ/KG-MOL      K  
 FUEL        H2                           1.0000000         0.000      0.000
 OXIDANT     H2                           1.0000000         0.000      0.000

 O/F=    1.00000  %FUEL= 50.000000  R,EQ.RATIO= 0.000000  PHI,EQ.RATIO=-1.000000

 THERMODYNAMIC PROPERTIES

 P, BAR           0.11000  0.11000  0.11000  0.11000  0.11000  0.11000  0.11000  0.12000
 T, K              640.00   645.00   650.00   655.00   660.00   665.00   670.00   600.00
 RHO, KG/CU M    4.1672-3 4.1349-3 4.1031-3 4.0717-3 4.0409-3 4.0105-3 3.9806-3 4.8491-3
 H, KJ/KG         4952.80  5025.63  5098.47  5171.34  5244.21  5317.11  5390.02  4370.65
 U, KJ/KG         2313.12  2365.33  2417.55  2469.79  2522.05  2574.32  2626.61  1895.95
 G, KJ/KG        -49439.1 -49864.4 -50290.2 -50716.5 -51143.4 -51570.9 -51998.9 -45842.9
 S, KJ/(KG)(K)    84.9874  85.1008  85.2133  85.3249  85.4358  85.5458  85.6550  83.6893

 M, (1/n)           2.016    2.016    2.016    2.016    2.016    2.016    2.016    2.016
 (dLV/dLP)t      -1.00000 -1.00000 -1.00000 -1.00000 -1.00000 -1.00000 -1.00000 -1.00000
 (dLV/dLT)p        1.0000   1.0000   1.0000   1.0000   1.0000   1.0000   1.0000   1.0000
 Cp, KJ/(KG)(K)   14.5648  14.5678  14.5709  14.5740  14.5773  14.5806  14.5840  14.5436
 GAMMAs            1.3951   1.3949   1.3948   1.3947   1.3946   1.3945   1.3943   1.3959
 SON VEL,M/SEC     1919.0   1926.4   1933.8   1941.1   1948.4   1955.7   1962.9   1858.6

 TRANSPORT PROPERTIES (GASES ONLY)
   CONDUCTIVITY IN UNITS OF MILLIWATTS/(CM)(K)

 VISC,MILLIPOISE  0.15034  0.15115  0.15196  0.15278  0.15358  0.15439  0.15520  0.14377

  WITH EQUILIBRIUM REACTIONS

 Cp, KJ/(KG)(K)   14.5648  14.5678  14.5709  14.5740  14.5773  14.5806  14.5840  14.5436
 CONDUCTIVITY      3.1764   3.1942   3.2119   3.2296   3.2473   3.2650   3.2827   3.0340
 PRANDTL NUMBER    0.6893   0.6894   0.6894   0.6894   0.6894   0.6895   0.6895   0.6892

  WITH FROZEN REACTIONS

 Cp, KJ/(KG)(K)   14.5648  14.5678  14.5709  14.5740  14.5773  14.5806  14.5840  14.5436
 CONDUCTIVITY      3.1764   3.1942   3.2119   3.2296   3.2473   3.2650   3.2827   3.0340
 PRANDTL NUMBER    0.6893   0.6894   0.6894   0.6894   0.6894   0.6895   0.6895   0.6892

 MASS FRACTIONS

 *H2              1.00000  1.00000  1.00000  1.00000  1.00000  1.00000  1.00000  1.00000

  * THERMODYNAMIC PROPERTIES FITTED TO 20000.K

 NOTE. WEIGHT FRACTION OF FUEL IN TOTAL FUELS AND OF OXIDANT IN TOTAL OXIDANTS









               THERMODYNAMIC EQUILIBRIUM PROPERTIES AT ASSIGNED

                           TEMPERATURE AND PRESSURE

 CASE =                

             REACTANT                    WT FRACTION      ENERGY      TEMP
                                          (SEE NOTE)     KJ/KG-MOL      K  
 FUEL        H2                           1.0000000         0.000      0.000
 OXIDANT     H2                           1.0000000         0.000      0.000

 O/F=    1.00000  %FUEL= 50.000000  R,EQ.RATIO= 0.000000  PHI,EQ.RATIO=-1.000000

 THERMODYNAMIC PROPERTIES

 P, BAR           0.12000  0.12000  0.12000  0.12000  0.12000  0.12000  0.12000  0.12000
 T, K              605.00   610.00   615.00   620.00   625.00   630.00   635.00   640.00
 RHO, KG/CU M    4.8090-3 4.7696-3 4.7308-3 4.6927-3 4.6551-3 4.6182-3 4.5818-3 4.5460-3
 H, KJ/KG         4443.37  4516.11  4588.85  4661.62  4734.39  4807.18  4879.98  4952.80
 U, KJ/KG         1948.05  2000.17  2052.29  2104.43  2156.58  2208.75  2260.93  2313.12
 G, KJ/KG        -46261.7 -46681.0 -47101.0 -47521.5 -47942.6 -48364.3 -48786.6 -49209.5
 S, KJ/(KG)(K)    83.8100  83.9297  84.0485  84.1663  84.2832  84.3992  84.5143  84.6285

 M, (1/n)           2.016    2.016    2.016    2.016    2.016    2.016    2.016    2.016
 (dLV/dLP)t      -1.00000 -1.00000 -1.00000 -1.00000 -1.00000 -1.00000 -1.00000 -1.00000
 (dLV/dLT)p        1.0000   1.0000   1.0000   1.0000   1.0000   1.0000   1.0000   1.0000
 Cp, KJ/(KG)(K)   14.5460  14.5484  14.5509  14.5535  14.5562  14.5590  14.5618  14.5648
 GAMMAs            1.3958   1.3957   1.3956   1.3955   1.3954   1.3953   1.3952   1.3951
 SON VEL,M/SEC     1866.3   1873.9   1881.5   1889.1   1896.6   1904.1   1911.6   1919.0

 TRANSPORT PROPERTIES (GASES ONLY)
   CONDUCTIVITY IN UNITS OF MILLIWATTS/(CM)(K)

 VISC,MILLIPOISE  0.14460  0.14542  0.14625  0.14707  0.14789  0.14871  0.14952  0.15034

  WITH EQUILIBRIUM REACTIONS

 Cp, KJ/(KG)(K)   14.5460  14.5484  14.5509  14.5535  14.5562  14.5590  14.5618  14.5648
 CONDUCTIVITY      3.0519   3.0698   3.0876   3.1054   3.1232   3.1410   3.1587   3.1764
 PRANDTL NUMBER    0.6892   0.6892   0.6892   0.6892   0.6893   0.6893   0.6893   0.6893

  WITH FROZEN REACTIONS

 Cp, KJ/(KG)(K)   14.5460  14.5484  14.5509  14.5535  14.5562  14.5590  14.5618  14.5648
 CONDUCTIVITY      3.0519   3.0698   3.0876   3.1054   3.1232   3.1410   3.1587   3.1764
 PRANDTL NUMBER    0.6892   0.6892   0.6892   0.6892   0.6893   0.6893   0.6893   0.6893

 MASS FRACTIONS

 *H2              1.00000  1.00000  1.00000  1.00000  1.00000  1.00000  1.00000  1.00000

  * THERMODYNAMIC PROPERTIES FITTED TO 20000.K

 NOTE. WEIGHT FRACTION OF FUEL IN TOTAL FUELS AND OF OXIDANT IN TOTAL OXIDANTS









               THERMODYNAMIC EQUILIBRIUM PROPERTIES AT ASSIGNED

                           TEMPERATURE AND PRESSURE

 CASE =                

             REACTANT                    WT FRACTION      ENERGY      TEMP
                                          (SEE NOTE)     KJ/KG-MOL      K  
 FUEL        H2                           1.0000000         0.000      0.000
 OXIDANT     H2                           1.0000000         0.000      0.000

 O/F=    1.00000  %FUEL= 50.000000  R,EQ.RATIO= 0.000000  PHI,EQ.RATIO=-1.000000

 THERMODYNAMIC PROPERTIES

 P, BAR           0.12000  0.12000  0.12000  0.12000  0.12000  0.12000  0.13200  0.13200
 T, K              645.00   650.00   655.00   660.00   665.00   670.00   600.00   605.00
 RHO, KG/CU M    4.5108-3 4.4761-3 4.4419-3 4.4083-3 4.3751-3 4.3425-3 5.3340-3 5.2899-3
 H, KJ/KG         5025.63  5098.47  5171.34  5244.21  5317.11  5390.02  4370.65  4443.37
 U, KJ/KG         2365.33  2417.55  2469.79  2522.05  2574.32  2626.61  1895.95  1948.05
 G, KJ/KG        -49632.9 -50056.9 -50481.4 -50906.5 -51332.2 -51758.4 -45607.1 -46023.8
 S, KJ/(KG)(K)    84.7419  84.8544  84.9661  85.0769  85.1869  85.2962  83.2962  83.4169

 M, (1/n)           2.016    2.016    2.016    2.016    2.016    2.016    2.016    2.016
 (dLV/dLP)t      -1.00000 -1.00000 -1.00000 -1.00000 -1.00000 -1.00000 -1.00000 -1.00000
 (dLV/dLT)p        1.0000   1.0000   1.0000   1.0000   1.0000   1.0000   1.0000   1.0000
 Cp, KJ/(KG)(K)   14.5678  14.5709  14.5740  14.5773  14.5806  14.5840  14.5436  14.5460
 GAMMAs            1.3949   1.3948   1.3947   1.3946   1.3945   1.3943   1.3959   1.3958
 SON VEL,M/SEC     1926.4   1933.8   1941.1   1948.4   1955.7   1962.9   1858.6   1866.3

 TRANSPORT PROPERTIES (GASES ONLY)
   CONDUCTIVITY IN UNITS OF MILLIWATTS/(CM)(K)

 VISC,MILLIPOISE  0.15115  0.15196  0.15278  0.15358  0.15439  0.15520  0.14377  0.14460

  WITH EQUILIBRIUM REACTIONS

 Cp, KJ/(KG)(K)   14.5678  14.5709  14.5740  14.5773  14.5806  14.5840  14.5436  14.5460
 CONDUCTIVITY      3.1942   3.2119   3.2296   3.2473   3.2650   3.2827   3.0340   3.0519
 PRANDTL NUMBER    0.6894   0.6894   0.6894   0.6894   0.6895   0.6895   0.6892   0.6892

  WITH FROZEN REACTIONS

 Cp, KJ/(KG)(K)   14.5678  14.5709  14.5740  14.5773  14.5806  14.5840  14.5436  14.5460
 CONDUCTIVITY      3.1942   3.2119   3.2296   3.2473   3.2650   3.2827   3.0340   3.0519
 PRANDTL NUMBER    0.6894   0.6894   0.6894   0.6894   0.6895   0.6895   0.6892   0.6892

 MASS FRACTIONS

 *H2              1.00000  1.00000  1.00000  1.00000  1.00000  1.00000  1.00000  1.00000

  * THERMODYNAMIC PROPERTIES FITTED TO 20000.K

 NOTE. WEIGHT FRACTION OF FUEL IN TOTAL FUELS AND OF OXIDANT IN TOTAL OXIDANTS









               THERMODYNAMIC EQUILIBRIUM PROPERTIES AT ASSIGNED

                           TEMPERATURE AND PRESSURE

 CASE =                

             REACTANT                    WT FRACTION      ENERGY      TEMP
                                          (SEE NOTE)     KJ/KG-MOL      K  
 FUEL        H2                           1.0000000         0.000      0.000
 OXIDANT     H2                           1.0000000         0.000      0.000

 O/F=    1.00000  %FUEL= 50.000000  R,EQ.RATIO= 0.000000  PHI,EQ.RATIO=-1.000000

 THERMODYNAMIC PROPERTIES

 P, BAR           0.13200  0.13200  0.13200  0.13200  0.13200  0.13200  0.13200  0.13200
 T, K              610.00   615.00   620.00   625.00   630.00   635.00   640.00   645.00
 RHO, KG/CU M    5.2465-3 5.2039-3 5.1619-3 5.1206-3 5.0800-3 5.0400-3 5.0006-3 4.9619-3
 H, KJ/KG         4516.11  4588.85  4661.62  4734.39  4807.18  4879.98  4952.80  5025.63
 U, KJ/KG         2000.17  2052.29  2104.43  2156.58  2208.75  2260.93  2313.12  2365.33
 G, KJ/KG        -46441.2 -46859.2 -47277.8 -47696.9 -48116.7 -48537.0 -48957.9 -49379.3
 S, KJ/(KG)(K)    83.5366  83.6554  83.7732  83.8901  84.0061  84.1212  84.2354  84.3488

 M, (1/n)           2.016    2.016    2.016    2.016    2.016    2.016    2.016    2.016
 (dLV/dLP)t      -1.00000 -1.00000 -1.00000 -1.00000 -1.00000 -1.00000 -1.00000 -1.00000
 (dLV/dLT)p        1.0000   1.0000   1.0000   1.0000   1.0000   1.0000   1.0000   1.0000
 Cp, KJ/(KG)(K)   14.5484  14.5509  14.5535  14.5562  14.5590  14.5618  14.5648  14.5678
 GAMMAs            1.3957   1.3956   1.3955   1.3954   1.3953   1.3952   1.3951   1.3949
 SON VEL,M/SEC     1873.9   1881.5   1889.1   1896.6   1904.1   1911.6   1919.0   1926.4

 TRANSPORT PROPERTIES (GASES ONLY)
   CONDUCTIVITY IN UNITS OF MILLIWATTS/(CM)(K)

 VISC,MILLIPOISE  0.14542  0.14625  0.14707  0.14789  0.14871  0.14952  0.15034  0.15115

  WITH EQUILIBRIUM REACTIONS

 Cp, KJ/(KG)(K)   14.5484  14.5509  14.5535  14.5562  14.5590  14.5618  14.5648  14.5678
 CONDUCTIVITY      3.0698   3.0876   3.1054   3.1232   3.1410   3.1587   3.1764   3.1942
 PRANDTL NUMBER    0.6892   0.6892   0.6892   0.6893   0.6893   0.6893   0.6893   0.6894

  WITH FROZEN REACTIONS

 Cp, KJ/(KG)(K)   14.5484  14.5509  14.5535  14.5562  14.5590  14.5618  14.5648  14.5678
 CONDUCTIVITY      3.0698   3.0876   3.1054   3.1232   3.1410   3.1587   3.1764   3.1942
 PRANDTL NUMBER    0.6892   0.6892   0.6892   0.6893   0.6893   0.6893   0.6893   0.6894

 MASS FRACTIONS

 *H2              1.00000  1.00000  1.00000  1.00000  1.00000  1.00000  1.00000  1.00000

  * THERMODYNAMIC PROPERTIES FITTED TO 20000.K

 NOTE. WEIGHT FRACTION OF FUEL IN TOTAL FUELS AND OF OXIDANT IN TOTAL OXIDANTS









               THERMODYNAMIC EQUILIBRIUM PROPERTIES AT ASSIGNED

                           TEMPERATURE AND PRESSURE

 CASE =                

             REACTANT                    WT FRACTION      ENERGY      TEMP
                                          (SEE NOTE)     KJ/KG-MOL      K  
 FUEL        H2                           1.0000000         0.000      0.000
 OXIDANT     H2                           1.0000000         0.000      0.000

 O/F=    1.00000  %FUEL= 50.000000  R,EQ.RATIO= 0.000000  PHI,EQ.RATIO=-1.000000

 THERMODYNAMIC PROPERTIES

 P, BAR           0.13200  0.13200  0.13200  0.13200  0.13200  0.14800  0.14800  0.14800
 T, K              650.00   655.00   660.00   665.00   670.00   600.00   605.00   610.00
 RHO, KG/CU M    4.9237-3 4.8861-3 4.8491-3 4.8126-3 4.7767-3 5.9805-3 5.9311-3 5.8825-3
 H, KJ/KG         5098.47  5171.34  5244.21  5317.11  5390.02  4370.65  4443.37  4516.11
 U, KJ/KG         2417.55  2469.79  2522.05  2574.32  2626.61  1895.95  1948.05  2000.17
 G, KJ/KG        -49801.4 -50223.9 -50647.1 -51070.8 -51495.0 -45324.0 -45738.4 -46153.4
 S, KJ/(KG)(K)    84.4613  84.5729  84.6838  84.7938  84.9031  82.8243  82.9450  83.0647

 M, (1/n)           2.016    2.016    2.016    2.016    2.016    2.016    2.016    2.016
 (dLV/dLP)t      -1.00000 -1.00000 -1.00000 -1.00000 -1.00000 -1.00000 -1.00000 -1.00000
 (dLV/dLT)p        1.0000   1.0000   1.0000   1.0000   1.0000   1.0000   1.0000   1.0000
 Cp, KJ/(KG)(K)   14.5709  14.5740  14.5773  14.5806  14.5840  14.5436  14.5460  14.5484
 GAMMAs            1.3948   1.3947   1.3946   1.3945   1.3943   1.3959   1.3958   1.3957
 SON VEL,M/SEC     1933.8   1941.1   1948.4   1955.7   1962.9   1858.6   1866.3   1873.9

 TRANSPORT PROPERTIES (GASES ONLY)
   CONDUCTIVITY IN UNITS OF MILLIWATTS/(CM)(K)

 VISC,MILLIPOISE  0.15196  0.15278  0.15358  0.15439  0.15520  0.14377  0.14460  0.14542

  WITH EQUILIBRIUM REACTIONS

 Cp, KJ/(KG)(K)   14.5709  14.5740  14.5773  14.5806  14.5840  14.5436  14.5460  14.5484
 CONDUCTIVITY      3.2119   3.2296   3.2473   3.2650   3.2827   3.0340   3.0519   3.0698
 PRANDTL NUMBER    0.6894   0.6894   0.6894   0.6895   0.6895   0.6892   0.6892   0.6892

  WITH FROZEN REACTIONS

 Cp, KJ/(KG)(K)   14.5709  14.5740  14.5773  14.5806  14.5840  14.5436  14.5460  14.5484
 CONDUCTIVITY      3.2119   3.2296   3.2473   3.2650   3.2827   3.0340   3.0519   3.0698
 PRANDTL NUMBER    0.6894   0.6894   0.6894   0.6895   0.6895   0.6892   0.6892   0.6892

 MASS FRACTIONS

 *H2              1.00000  1.00000  1.00000  1.00000  1.00000  1.00000  1.00000  1.00000

  * THERMODYNAMIC PROPERTIES FITTED TO 20000.K

 NOTE. WEIGHT FRACTION OF FUEL IN TOTAL FUELS AND OF OXIDANT IN TOTAL OXIDANTS









               THERMODYNAMIC EQUILIBRIUM PROPERTIES AT ASSIGNED

                           TEMPERATURE AND PRESSURE

 CASE =                

             REACTANT                    WT FRACTION      ENERGY      TEMP
                                          (SEE NOTE)     KJ/KG-MOL      K  
 FUEL        H2                           1.0000000         0.000      0.000
 OXIDANT     H2                           1.0000000         0.000      0.000

 O/F=    1.00000  %FUEL= 50.000000  R,EQ.RATIO= 0.000000  PHI,EQ.RATIO=-1.000000

 THERMODYNAMIC PROPERTIES

 P, BAR           0.14800  0.14800  0.14800  0.14800  0.14800  0.14800  0.14800  0.14800
 T, K              615.00   620.00   625.00   630.00   635.00   640.00   645.00   650.00
 RHO, KG/CU M    5.8347-3 5.7876-3 5.7413-3 5.6957-3 5.6509-3 5.6068-3 5.5633-3 5.5205-3
 H, KJ/KG         4588.85  4661.62  4734.39  4807.18  4879.98  4952.80  5025.63  5098.47
 U, KJ/KG         2052.29  2104.43  2156.58  2208.75  2260.93  2313.12  2365.33  2417.55
 G, KJ/KG        -46569.0 -46985.2 -47402.0 -47819.4 -48237.3 -48655.9 -49075.0 -49494.6
 S, KJ/(KG)(K)    83.1835  83.3013  83.4182  83.5342  83.6493  83.7635  83.8769  83.9894

 M, (1/n)           2.016    2.016    2.016    2.016    2.016    2.016    2.016    2.016
 (dLV/dLP)t      -1.00000 -1.00000 -1.00000 -1.00000 -1.00000 -1.00000 -1.00000 -1.00000
 (dLV/dLT)p        1.0000   1.0000   1.0000   1.0000   1.0000   1.0000   1.0000   1.0000
 Cp, KJ/(KG)(K)   14.5509  14.5535  14.5562  14.5590  14.5618  14.5648  14.5678  14.5709
 GAMMAs            1.3956   1.3955   1.3954   1.3953   1.3952   1.3951   1.3949   1.3948
 SON VEL,M/SEC     1881.5   1889.1   1896.6   1904.1   1911.6   1919.0   1926.4   1933.8

 TRANSPORT PROPERTIES (GASES ONLY)
   CONDUCTIVITY IN UNITS OF MILLIWATTS/(CM)(K)

 VISC,MILLIPOISE  0.14625  0.14707  0.14789  0.14871  0.14952  0.15034  0.15115  0.15196

  WITH EQUILIBRIUM REACTIONS

 Cp, KJ/(KG)(K)   14.5509  14.5535  14.5562  14.5590  14.5618  14.5648  14.5678  14.5709
 CONDUCTIVITY      3.0876   3.1054   3.1232   3.1410   3.1587   3.1764   3.1942   3.2119
 PRANDTL NUMBER    0.6892   0.6892   0.6893   0.6893   0.6893   0.6893   0.6894   0.6894

  WITH FROZEN REACTIONS

 Cp, KJ/(KG)(K)   14.5509  14.5535  14.5562  14.5590  14.5618  14.5648  14.5678  14.5709
 CONDUCTIVITY      3.0876   3.1054   3.1232   3.1410   3.1587   3.1764   3.1942   3.2119
 PRANDTL NUMBER    0.6892   0.6892   0.6893   0.6893   0.6893   0.6893   0.6894   0.6894

 MASS FRACTIONS

 *H2              1.00000  1.00000  1.00000  1.00000  1.00000  1.00000  1.00000  1.00000

  * THERMODYNAMIC PROPERTIES FITTED TO 20000.K

 NOTE. WEIGHT FRACTION OF FUEL IN TOTAL FUELS AND OF OXIDANT IN TOTAL OXIDANTS









               THERMODYNAMIC EQUILIBRIUM PROPERTIES AT ASSIGNED

                           TEMPERATURE AND PRESSURE

 CASE =                

             REACTANT                    WT FRACTION      ENERGY      TEMP
                                          (SEE NOTE)     KJ/KG-MOL      K  
 FUEL        H2                           1.0000000         0.000      0.000
 OXIDANT     H2                           1.0000000         0.000      0.000

 O/F=    1.00000  %FUEL= 50.000000  R,EQ.RATIO= 0.000000  PHI,EQ.RATIO=-1.000000

 THERMODYNAMIC PROPERTIES

 P, BAR           0.14800  0.14800  0.14800  0.14800  0.16500  0.16500  0.16500  0.16500
 T, K              655.00   660.00   665.00   670.00   600.00   605.00   610.00   615.00
 RHO, KG/CU M    5.4784-3 5.4368-3 5.3960-3 5.3557-3 6.6675-3 6.6124-3 6.5582-3 6.5049-3
 H, KJ/KG         5171.34  5244.21  5317.11  5390.02  4370.65  4443.37  4516.11  4588.85
 U, KJ/KG         2469.79  2522.05  2574.32  2626.61  1895.95  1948.05  2000.17  2052.29
 G, KJ/KG        -49914.9 -50335.6 -50757.0 -51178.9 -45054.9 -45467.0 -45879.8 -46293.2
 S, KJ/(KG)(K)    84.1011  84.2119  84.3219  84.4312  82.3759  82.4965  82.6162  82.7350

 M, (1/n)           2.016    2.016    2.016    2.016    2.016    2.016    2.016    2.016
 (dLV/dLP)t      -1.00000 -1.00000 -1.00000 -1.00000 -1.00000 -1.00000 -1.00000 -1.00000
 (dLV/dLT)p        1.0000   1.0000   1.0000   1.0000   1.0000   1.0000   1.0000   1.0000
 Cp, KJ/(KG)(K)   14.5740  14.5773  14.5806  14.5840  14.5436  14.5460  14.5484  14.5509
 GAMMAs            1.3947   1.3946   1.3945   1.3943   1.3959   1.3958   1.3957   1.3956
 SON VEL,M/SEC     1941.1   1948.4   1955.7   1962.9   1858.6   1866.3   1873.9   1881.5

 TRANSPORT PROPERTIES (GASES ONLY)
   CONDUCTIVITY IN UNITS OF MILLIWATTS/(CM)(K)

 VISC,MILLIPOISE  0.15278  0.15358  0.15439  0.15520  0.14377  0.14460  0.14542  0.14625

  WITH EQUILIBRIUM REACTIONS

 Cp, KJ/(KG)(K)   14.5740  14.5773  14.5806  14.5840  14.5436  14.5460  14.5484  14.5509
 CONDUCTIVITY      3.2296   3.2473   3.2650   3.2827   3.0340   3.0519   3.0698   3.0876
 PRANDTL NUMBER    0.6894   0.6894   0.6895   0.6895   0.6892   0.6892   0.6892   0.6892

  WITH FROZEN REACTIONS

 Cp, KJ/(KG)(K)   14.5740  14.5773  14.5806  14.5840  14.5436  14.5460  14.5484  14.5509
 CONDUCTIVITY      3.2296   3.2473   3.2650   3.2827   3.0340   3.0519   3.0698   3.0876
 PRANDTL NUMBER    0.6894   0.6894   0.6895   0.6895   0.6892   0.6892   0.6892   0.6892

 MASS FRACTIONS

 *H2              1.00000  1.00000  1.00000  1.00000  1.00000  1.00000  1.00000  1.00000

  * THERMODYNAMIC PROPERTIES FITTED TO 20000.K

 NOTE. WEIGHT FRACTION OF FUEL IN TOTAL FUELS AND OF OXIDANT IN TOTAL OXIDANTS









               THERMODYNAMIC EQUILIBRIUM PROPERTIES AT ASSIGNED

                           TEMPERATURE AND PRESSURE

 CASE =                

             REACTANT                    WT FRACTION      ENERGY      TEMP
                                          (SEE NOTE)     KJ/KG-MOL      K  
 FUEL        H2                           1.0000000         0.000      0.000
 OXIDANT     H2                           1.0000000         0.000      0.000

 O/F=    1.00000  %FUEL= 50.000000  R,EQ.RATIO= 0.000000  PHI,EQ.RATIO=-1.000000

 THERMODYNAMIC PROPERTIES

 P, BAR           0.16500  0.16500  0.16500  0.16500  0.16500  0.16500  0.16500  0.16500
 T, K              620.00   625.00   630.00   635.00   640.00   645.00   650.00   655.00
 RHO, KG/CU M    6.4524-3 6.4008-3 6.3500-3 6.3000-3 6.2508-3 6.2023-3 6.1546-3 6.1076-3
 H, KJ/KG         4661.62  4734.39  4807.18  4879.98  4952.80  5025.63  5098.47  5171.34
 U, KJ/KG         2104.43  2156.58  2208.75  2260.93  2313.12  2365.33  2417.55  2469.79
 G, KJ/KG        -46707.1 -47121.7 -47536.8 -47952.6 -48368.8 -48785.7 -49203.1 -49621.1
 S, KJ/(KG)(K)    82.8528  82.9697  83.0857  83.2008  83.3151  83.4284  83.5409  83.6526

 M, (1/n)           2.016    2.016    2.016    2.016    2.016    2.016    2.016    2.016
 (dLV/dLP)t      -1.00000 -1.00000 -1.00000 -1.00000 -1.00000 -1.00000 -1.00000 -1.00000
 (dLV/dLT)p        1.0000   1.0000   1.0000   1.0000   1.0000   1.0000   1.0000   1.0000
 Cp, KJ/(KG)(K)   14.5535  14.5562  14.5590  14.5618  14.5648  14.5678  14.5709  14.5740
 GAMMAs            1.3955   1.3954   1.3953   1.3952   1.3951   1.3949   1.3948   1.3947
 SON VEL,M/SEC     1889.1   1896.6   1904.1   1911.6   1919.0   1926.4   1933.8   1941.1

 TRANSPORT PROPERTIES (GASES ONLY)
   CONDUCTIVITY IN UNITS OF MILLIWATTS/(CM)(K)

 VISC,MILLIPOISE  0.14707  0.14789  0.14871  0.14952  0.15034  0.15115  0.15196  0.15278

  WITH EQUILIBRIUM REACTIONS

 Cp, KJ/(KG)(K)   14.5535  14.5562  14.5590  14.5618  14.5648  14.5678  14.5709  14.5740
 CONDUCTIVITY      3.1054   3.1232   3.1410   3.1587   3.1764   3.1942   3.2119   3.2296
 PRANDTL NUMBER    0.6892   0.6893   0.6893   0.6893   0.6893   0.6894   0.6894   0.6894

  WITH FROZEN REACTIONS

 Cp, KJ/(KG)(K)   14.5535  14.5562  14.5590  14.5618  14.5648  14.5678  14.5709  14.5740
 CONDUCTIVITY      3.1054   3.1232   3.1410   3.1587   3.1764   3.1942   3.2119   3.2296
 PRANDTL NUMBER    0.6892   0.6893   0.6893   0.6893   0.6893   0.6894   0.6894   0.6894

 MASS FRACTIONS

 *H2              1.00000  1.00000  1.00000  1.00000  1.00000  1.00000  1.00000  1.00000

  * THERMODYNAMIC PROPERTIES FITTED TO 20000.K

 NOTE. WEIGHT FRACTION OF FUEL IN TOTAL FUELS AND OF OXIDANT IN TOTAL OXIDANTS









               THERMODYNAMIC EQUILIBRIUM PROPERTIES AT ASSIGNED

                           TEMPERATURE AND PRESSURE

 CASE =                

             REACTANT                    WT FRACTION      ENERGY      TEMP
                                          (SEE NOTE)     KJ/KG-MOL      K  
 FUEL        H2                           1.0000000         0.000      0.000
 OXIDANT     H2                           1.0000000         0.000      0.000

 O/F=    1.00000  %FUEL= 50.000000  R,EQ.RATIO= 0.000000  PHI,EQ.RATIO=-1.000000

 THERMODYNAMIC PROPERTIES

 P, BAR           0.16500  0.16500  0.16500  0.18000  0.18000  0.18000  0.18000  0.18000
 T, K              660.00   665.00   670.00   600.00   605.00   610.00   615.00   620.00
 RHO, KG/CU M    6.0614-3 6.0158-3 5.9709-3 7.2736-3 7.2135-3 7.1544-3 7.0962-3 7.0390-3
 H, KJ/KG         5244.21  5317.11  5390.02  4370.65  4443.37  4516.11  4588.85  4661.62
 U, KJ/KG         2522.05  2574.32  2626.61  1895.95  1948.05  2000.17  2052.29  2104.43
 G, KJ/KG        -50039.7 -50458.7 -50878.4 -44839.5 -45249.9 -45660.9 -46072.5 -46484.6
 S, KJ/(KG)(K)    83.7634  83.8735  83.9827  82.0170  82.1376  82.2574  82.3761  82.4940

 M, (1/n)           2.016    2.016    2.016    2.016    2.016    2.016    2.016    2.016
 (dLV/dLP)t      -1.00000 -1.00000 -1.00000 -1.00000 -1.00000 -1.00000 -1.00000 -1.00000
 (dLV/dLT)p        1.0000   1.0000   1.0000   1.0000   1.0000   1.0000   1.0000   1.0000
 Cp, KJ/(KG)(K)   14.5773  14.5806  14.5840  14.5436  14.5460  14.5484  14.5509  14.5535
 GAMMAs            1.3946   1.3945   1.3943   1.3959   1.3958   1.3957   1.3956   1.3955
 SON VEL,M/SEC     1948.4   1955.7   1962.9   1858.6   1866.3   1873.9   1881.5   1889.1

 TRANSPORT PROPERTIES (GASES ONLY)
   CONDUCTIVITY IN UNITS OF MILLIWATTS/(CM)(K)

 VISC,MILLIPOISE  0.15358  0.15439  0.15520  0.14377  0.14460  0.14542  0.14625  0.14707

  WITH EQUILIBRIUM REACTIONS

 Cp, KJ/(KG)(K)   14.5773  14.5806  14.5840  14.5436  14.5460  14.5484  14.5509  14.5535
 CONDUCTIVITY      3.2473   3.2650   3.2827   3.0340   3.0519   3.0698   3.0876   3.1054
 PRANDTL NUMBER    0.6894   0.6895   0.6895   0.6892   0.6892   0.6892   0.6892   0.6892

  WITH FROZEN REACTIONS

 Cp, KJ/(KG)(K)   14.5773  14.5806  14.5840  14.5436  14.5460  14.5484  14.5509  14.5535
 CONDUCTIVITY      3.2473   3.2650   3.2827   3.0340   3.0519   3.0698   3.0876   3.1054
 PRANDTL NUMBER    0.6894   0.6895   0.6895   0.6892   0.6892   0.6892   0.6892   0.6892

 MASS FRACTIONS

 *H2              1.00000  1.00000  1.00000  1.00000  1.00000  1.00000  1.00000  1.00000

  * THERMODYNAMIC PROPERTIES FITTED TO 20000.K

 NOTE. WEIGHT FRACTION OF FUEL IN TOTAL FUELS AND OF OXIDANT IN TOTAL OXIDANTS









               THERMODYNAMIC EQUILIBRIUM PROPERTIES AT ASSIGNED

                           TEMPERATURE AND PRESSURE

 CASE =                

             REACTANT                    WT FRACTION      ENERGY      TEMP
                                          (SEE NOTE)     KJ/KG-MOL      K  
 FUEL        H2                           1.0000000         0.000      0.000
 OXIDANT     H2                           1.0000000         0.000      0.000

 O/F=    1.00000  %FUEL= 50.000000  R,EQ.RATIO= 0.000000  PHI,EQ.RATIO=-1.000000

 THERMODYNAMIC PROPERTIES

 P, BAR           0.18000  0.18000  0.18000  0.18000  0.18000  0.18000  0.18000  0.18000
 T, K              625.00   630.00   635.00   640.00   645.00   650.00   655.00   660.00
 RHO, KG/CU M    6.9827-3 6.9273-3 6.8727-3 6.8190-3 6.7662-3 6.7141-3 6.6629-3 6.6124-3
 H, KJ/KG         4734.39  4807.18  4879.98  4952.80  5025.63  5098.47  5171.34  5244.21
 U, KJ/KG         2156.58  2208.75  2260.93  2313.12  2365.33  2417.55  2469.79  2522.05
 G, KJ/KG        -46897.4 -47310.7 -47724.7 -48139.2 -48554.2 -48969.9 -49386.0 -49802.8
 S, KJ/(KG)(K)    82.6109  82.7269  82.8420  82.9562  83.0695  83.1820  83.2937  83.4046

 M, (1/n)           2.016    2.016    2.016    2.016    2.016    2.016    2.016    2.016
 (dLV/dLP)t      -1.00000 -1.00000 -1.00000 -1.00000 -1.00000 -1.00000 -1.00000 -1.00000
 (dLV/dLT)p        1.0000   1.0000   1.0000   1.0000   1.0000   1.0000   1.0000   1.0000
 Cp, KJ/(KG)(K)   14.5562  14.5590  14.5618  14.5648  14.5678  14.5709  14.5740  14.5773
 GAMMAs            1.3954   1.3953   1.3952   1.3951   1.3949   1.3948   1.3947   1.3946
 SON VEL,M/SEC     1896.6   1904.1   1911.6   1919.0   1926.4   1933.8   1941.1   1948.4

 TRANSPORT PROPERTIES (GASES ONLY)
   CONDUCTIVITY IN UNITS OF MILLIWATTS/(CM)(K)

 VISC,MILLIPOISE  0.14789  0.14871  0.14952  0.15034  0.15115  0.15196  0.15278  0.15358

  WITH EQUILIBRIUM REACTIONS

 Cp, KJ/(KG)(K)   14.5562  14.5590  14.5618  14.5648  14.5678  14.5709  14.5740  14.5773
 CONDUCTIVITY      3.1232   3.1410   3.1587   3.1764   3.1942   3.2119   3.2296   3.2473
 PRANDTL NUMBER    0.6893   0.6893   0.6893   0.6893   0.6894   0.6894   0.6894   0.6894

  WITH FROZEN REACTIONS

 Cp, KJ/(KG)(K)   14.5562  14.5590  14.5618  14.5648  14.5678  14.5709  14.5740  14.5773
 CONDUCTIVITY      3.1232   3.1410   3.1587   3.1764   3.1942   3.2119   3.2296   3.2473
 PRANDTL NUMBER    0.6893   0.6893   0.6893   0.6893   0.6894   0.6894   0.6894   0.6894

 MASS FRACTIONS

 *H2              1.00000  1.00000  1.00000  1.00000  1.00000  1.00000  1.00000  1.00000

  * THERMODYNAMIC PROPERTIES FITTED TO 20000.K

 NOTE. WEIGHT FRACTION OF FUEL IN TOTAL FUELS AND OF OXIDANT IN TOTAL OXIDANTS









               THERMODYNAMIC EQUILIBRIUM PROPERTIES AT ASSIGNED

                           TEMPERATURE AND PRESSURE

 CASE =                

             REACTANT                    WT FRACTION      ENERGY      TEMP
                                          (SEE NOTE)     KJ/KG-MOL      K  
 FUEL        H2                           1.0000000         0.000      0.000
 OXIDANT     H2                           1.0000000         0.000      0.000

 O/F=    1.00000  %FUEL= 50.000000  R,EQ.RATIO= 0.000000  PHI,EQ.RATIO=-1.000000

 THERMODYNAMIC PROPERTIES

 P, BAR           0.18000  0.18000  0.20000  0.20000  0.20000  0.20000  0.20000  0.20000
 T, K              665.00   670.00   600.00   605.00   610.00   615.00   620.00   625.00
 RHO, KG/CU M    6.5627-3 6.5137-3 8.0818-3 8.0150-3 7.9493-3 7.8847-3 7.8211-3 7.7585-3
 H, KJ/KG         5317.11  5390.02  4370.65  4443.37  4516.11  4588.85  4661.62  4734.39
 U, KJ/KG         2574.32  2626.61  1895.95  1948.05  2000.17  2052.29  2104.43  2156.58
 G, KJ/KG        -50220.1 -50637.9 -44578.8 -44987.0 -45395.8 -45805.2 -46215.2 -46625.8
 S, KJ/(KG)(K)    83.5146  83.6238  81.5824  81.7031  81.8228  81.9416  82.0594  82.1763

 M, (1/n)           2.016    2.016    2.016    2.016    2.016    2.016    2.016    2.016
 (dLV/dLP)t      -1.00000 -1.00000 -1.00000 -1.00000 -1.00000 -1.00000 -1.00000 -1.00000
 (dLV/dLT)p        1.0000   1.0000   1.0000   1.0000   1.0000   1.0000   1.0000   1.0000
 Cp, KJ/(KG)(K)   14.5806  14.5840  14.5436  14.5460  14.5484  14.5509  14.5535  14.5562
 GAMMAs            1.3945   1.3943   1.3959   1.3958   1.3957   1.3956   1.3955   1.3954
 SON VEL,M/SEC     1955.7   1962.9   1858.6   1866.3   1873.9   1881.5   1889.1   1896.6

 TRANSPORT PROPERTIES (GASES ONLY)
   CONDUCTIVITY IN UNITS OF MILLIWATTS/(CM)(K)

 VISC,MILLIPOISE  0.15439  0.15520  0.14377  0.14460  0.14542  0.14625  0.14707  0.14789

  WITH EQUILIBRIUM REACTIONS

 Cp, KJ/(KG)(K)   14.5806  14.5840  14.5436  14.5460  14.5484  14.5509  14.5535  14.5562
 CONDUCTIVITY      3.2650   3.2827   3.0340   3.0519   3.0698   3.0876   3.1054   3.1232
 PRANDTL NUMBER    0.6895   0.6895   0.6892   0.6892   0.6892   0.6892   0.6892   0.6893

  WITH FROZEN REACTIONS

 Cp, KJ/(KG)(K)   14.5806  14.5840  14.5436  14.5460  14.5484  14.5509  14.5535  14.5562
 CONDUCTIVITY      3.2650   3.2827   3.0340   3.0519   3.0698   3.0876   3.1054   3.1232
 PRANDTL NUMBER    0.6895   0.6895   0.6892   0.6892   0.6892   0.6892   0.6892   0.6893

 MASS FRACTIONS

 *H2              1.00000  1.00000  1.00000  1.00000  1.00000  1.00000  1.00000  1.00000

  * THERMODYNAMIC PROPERTIES FITTED TO 20000.K

 NOTE. WEIGHT FRACTION OF FUEL IN TOTAL FUELS AND OF OXIDANT IN TOTAL OXIDANTS









               THERMODYNAMIC EQUILIBRIUM PROPERTIES AT ASSIGNED

                           TEMPERATURE AND PRESSURE

 CASE =                

             REACTANT                    WT FRACTION      ENERGY      TEMP
                                          (SEE NOTE)     KJ/KG-MOL      K  
 FUEL        H2                           1.0000000         0.000      0.000
 OXIDANT     H2                           1.0000000         0.000      0.000

 O/F=    1.00000  %FUEL= 50.000000  R,EQ.RATIO= 0.000000  PHI,EQ.RATIO=-1.000000

 THERMODYNAMIC PROPERTIES

 P, BAR           0.20000  0.20000  0.20000  0.20000  0.20000  0.20000  0.20000  0.20000
 T, K              630.00   635.00   640.00   645.00   650.00   655.00   660.00   665.00
 RHO, KG/CU M    7.6970-3 7.6363-3 7.5767-3 7.5180-3 7.4601-3 7.4032-3 7.3471-3 7.2919-3
 H, KJ/KG         4807.18  4879.98  4952.80  5025.63  5098.47  5171.34  5244.21  5317.11
 U, KJ/KG         2208.75  2260.93  2313.12  2365.33  2417.55  2469.79  2522.05  2574.32
 G, KJ/KG        -47037.0 -47448.7 -47861.0 -48273.9 -48687.4 -49101.4 -49516.0 -49931.1
 S, KJ/(KG)(K)    82.2923  82.4074  82.5216  82.6350  82.7475  82.8592  82.9700  83.0800

 M, (1/n)           2.016    2.016    2.016    2.016    2.016    2.016    2.016    2.016
 (dLV/dLP)t      -1.00000 -1.00000 -1.00000 -1.00000 -1.00000 -1.00000 -1.00000 -1.00000
 (dLV/dLT)p        1.0000   1.0000   1.0000   1.0000   1.0000   1.0000   1.0000   1.0000
 Cp, KJ/(KG)(K)   14.5590  14.5618  14.5648  14.5678  14.5709  14.5740  14.5773  14.5806
 GAMMAs            1.3953   1.3952   1.3951   1.3949   1.3948   1.3947   1.3946   1.3945
 SON VEL,M/SEC     1904.1   1911.6   1919.0   1926.4   1933.8   1941.1   1948.4   1955.7

 TRANSPORT PROPERTIES (GASES ONLY)
   CONDUCTIVITY IN UNITS OF MILLIWATTS/(CM)(K)

 VISC,MILLIPOISE  0.14871  0.14952  0.15034  0.15115  0.15196  0.15278  0.15358  0.15439

  WITH EQUILIBRIUM REACTIONS

 Cp, KJ/(KG)(K)   14.5590  14.5618  14.5648  14.5678  14.5709  14.5740  14.5773  14.5806
 CONDUCTIVITY      3.1410   3.1587   3.1764   3.1942   3.2119   3.2296   3.2473   3.2650
 PRANDTL NUMBER    0.6893   0.6893   0.6893   0.6894   0.6894   0.6894   0.6894   0.6895

  WITH FROZEN REACTIONS

 Cp, KJ/(KG)(K)   14.5590  14.5618  14.5648  14.5678  14.5709  14.5740  14.5773  14.5806
 CONDUCTIVITY      3.1410   3.1587   3.1764   3.1942   3.2119   3.2296   3.2473   3.2650
 PRANDTL NUMBER    0.6893   0.6893   0.6893   0.6894   0.6894   0.6894   0.6894   0.6895

 MASS FRACTIONS

 *H2              1.00000  1.00000  1.00000  1.00000  1.00000  1.00000  1.00000  1.00000

  * THERMODYNAMIC PROPERTIES FITTED TO 20000.K

 NOTE. WEIGHT FRACTION OF FUEL IN TOTAL FUELS AND OF OXIDANT IN TOTAL OXIDANTS









               THERMODYNAMIC EQUILIBRIUM PROPERTIES AT ASSIGNED

                           TEMPERATURE AND PRESSURE

 CASE =                

             REACTANT                    WT FRACTION      ENERGY      TEMP
                                          (SEE NOTE)     KJ/KG-MOL      K  
 FUEL        H2                           1.0000000         0.000      0.000
 OXIDANT     H2                           1.0000000         0.000      0.000

 O/F=    1.00000  %FUEL= 50.000000  R,EQ.RATIO= 0.000000  PHI,EQ.RATIO=-1.000000

 THERMODYNAMIC PROPERTIES

 P, BAR           0.20000  0.22500  0.22500  0.22500  0.22500  0.22500  0.22500  0.22500
 T, K              670.00   600.00   605.00   610.00   615.00   620.00   625.00   630.00
 RHO, KG/CU M    7.2374-3 9.0920-3 9.0169-3 8.9430-3 8.8703-3 8.7987-3 8.7283-3 8.6591-3
 H, KJ/KG         5390.02  4370.65  4443.37  4516.11  4588.85  4661.62  4734.39  4807.18
 U, KJ/KG         2626.61  1895.95  1948.05  2000.17  2052.29  2104.43  2156.58  2208.75
 G, KJ/KG        -50346.8 -44287.3 -44693.1 -45099.5 -45506.4 -45914.0 -46322.2 -46730.9
 S, KJ/(KG)(K)    83.1893  81.0966  81.2173  81.3370  81.4558  81.5736  81.6905  81.8065

 M, (1/n)           2.016    2.016    2.016    2.016    2.016    2.016    2.016    2.016
 (dLV/dLP)t      -1.00000 -1.00000 -1.00000 -1.00000 -1.00000 -1.00000 -1.00000 -1.00000
 (dLV/dLT)p        1.0000   1.0000   1.0000   1.0000   1.0000   1.0000   1.0000   1.0000
 Cp, KJ/(KG)(K)   14.5840  14.5436  14.5460  14.5484  14.5509  14.5535  14.5562  14.5590
 GAMMAs            1.3943   1.3959   1.3958   1.3957   1.3956   1.3955   1.3954   1.3953
 SON VEL,M/SEC     1962.9   1858.6   1866.3   1873.9   1881.5   1889.1   1896.6   1904.1

 TRANSPORT PROPERTIES (GASES ONLY)
   CONDUCTIVITY IN UNITS OF MILLIWATTS/(CM)(K)

 VISC,MILLIPOISE  0.15520  0.14377  0.14460  0.14542  0.14625  0.14707  0.14789  0.14871

  WITH EQUILIBRIUM REACTIONS

 Cp, KJ/(KG)(K)   14.5840  14.5436  14.5460  14.5484  14.5509  14.5535  14.5562  14.5590
 CONDUCTIVITY      3.2827   3.0340   3.0519   3.0698   3.0876   3.1054   3.1232   3.1410
 PRANDTL NUMBER    0.6895   0.6892   0.6892   0.6892   0.6892   0.6892   0.6893   0.6893

  WITH FROZEN REACTIONS

 Cp, KJ/(KG)(K)   14.5840  14.5436  14.5460  14.5484  14.5509  14.5535  14.5562  14.5590
 CONDUCTIVITY      3.2827   3.0340   3.0519   3.0698   3.0876   3.1054   3.1232   3.1410
 PRANDTL NUMBER    0.6895   0.6892   0.6892   0.6892   0.6892   0.6892   0.6893   0.6893

 MASS FRACTIONS

 *H2              1.00000  1.00000  1.00000  1.00000  1.00000  1.00000  1.00000  1.00000

  * THERMODYNAMIC PROPERTIES FITTED TO 20000.K

 NOTE. WEIGHT FRACTION OF FUEL IN TOTAL FUELS AND OF OXIDANT IN TOTAL OXIDANTS









               THERMODYNAMIC EQUILIBRIUM PROPERTIES AT ASSIGNED

                           TEMPERATURE AND PRESSURE

 CASE =                

             REACTANT                    WT FRACTION      ENERGY      TEMP
                                          (SEE NOTE)     KJ/KG-MOL      K  
 FUEL        H2                           1.0000000         0.000      0.000
 OXIDANT     H2                           1.0000000         0.000      0.000

 O/F=    1.00000  %FUEL= 50.000000  R,EQ.RATIO= 0.000000  PHI,EQ.RATIO=-1.000000

 THERMODYNAMIC PROPERTIES

 P, BAR           0.22500  0.22500  0.22500  0.22500  0.22500  0.22500  0.22500  0.22500
 T, K              635.00   640.00   645.00   650.00   655.00   660.00   665.00   670.00
 RHO, KG/CU M    8.5909-3 8.5238-3 8.4577-3 8.3926-3 8.3286-3 8.2655-3 8.2033-3 8.1421-3
 H, KJ/KG         4879.98  4952.80  5025.63  5098.47  5171.34  5244.21  5317.11  5390.02
 U, KJ/KG         2260.93  2313.12  2365.33  2417.55  2469.79  2522.05  2574.32  2626.61
 G, KJ/KG        -47140.2 -47550.1 -47960.6 -48371.6 -48783.2 -49195.4 -49608.1 -50021.3
 S, KJ/(KG)(K)    81.9216  82.0358  82.1492  82.2617  82.3734  82.4842  82.5942  82.7035

 M, (1/n)           2.016    2.016    2.016    2.016    2.016    2.016    2.016    2.016
 (dLV/dLP)t      -1.00000 -1.00000 -1.00000 -1.00000 -1.00000 -1.00000 -1.00000 -1.00000
 (dLV/dLT)p        1.0000   1.0000   1.0000   1.0000   1.0000   1.0000   1.0000   1.0000
 Cp, KJ/(KG)(K)   14.5618  14.5648  14.5678  14.5709  14.5740  14.5773  14.5806  14.5840
 GAMMAs            1.3952   1.3951   1.3949   1.3948   1.3947   1.3946   1.3945   1.3943
 SON VEL,M/SEC     1911.6   1919.0   1926.4   1933.8   1941.1   1948.4   1955.7   1962.9

 TRANSPORT PROPERTIES (GASES ONLY)
   CONDUCTIVITY IN UNITS OF MILLIWATTS/(CM)(K)

 VISC,MILLIPOISE  0.14952  0.15034  0.15115  0.15196  0.15278  0.15358  0.15439  0.15520

  WITH EQUILIBRIUM REACTIONS

 Cp, KJ/(KG)(K)   14.5618  14.5648  14.5678  14.5709  14.5740  14.5773  14.5806  14.5840
 CONDUCTIVITY      3.1587   3.1764   3.1942   3.2119   3.2296   3.2473   3.2650   3.2827
 PRANDTL NUMBER    0.6893   0.6893   0.6894   0.6894   0.6894   0.6894   0.6895   0.6895

  WITH FROZEN REACTIONS

 Cp, KJ/(KG)(K)   14.5618  14.5648  14.5678  14.5709  14.5740  14.5773  14.5806  14.5840
 CONDUCTIVITY      3.1587   3.1764   3.1942   3.2119   3.2296   3.2473   3.2650   3.2827
 PRANDTL NUMBER    0.6893   0.6893   0.6894   0.6894   0.6894   0.6894   0.6895   0.6895

 MASS FRACTIONS

 *H2              1.00000  1.00000  1.00000  1.00000  1.00000  1.00000  1.00000  1.00000

  * THERMODYNAMIC PROPERTIES FITTED TO 20000.K

 NOTE. WEIGHT FRACTION OF FUEL IN TOTAL FUELS AND OF OXIDANT IN TOTAL OXIDANTS









               THERMODYNAMIC EQUILIBRIUM PROPERTIES AT ASSIGNED

                           TEMPERATURE AND PRESSURE

 CASE =                

             REACTANT                    WT FRACTION      ENERGY      TEMP
                                          (SEE NOTE)     KJ/KG-MOL      K  
 FUEL        H2                           1.0000000         0.000      0.000
 OXIDANT     H2                           1.0000000         0.000      0.000

 O/F=    1.00000  %FUEL= 50.000000  R,EQ.RATIO= 0.000000  PHI,EQ.RATIO=-1.000000

 THERMODYNAMIC PROPERTIES

 P, BAR           0.25000  0.25000  0.25000  0.25000  0.25000  0.25000  0.25000  0.25000
 T, K              600.00   605.00   610.00   615.00   620.00   625.00   630.00   635.00
 RHO, KG/CU M    1.0102-2 1.0019-2 9.9366-3 9.8559-3 9.7764-3 9.6982-3 9.6212-3 9.5454-3
 H, KJ/KG         4370.65  4443.37  4516.11  4588.85  4661.62  4734.39  4807.18  4879.98
 U, KJ/KG         1895.95  1948.05  2000.17  2052.29  2104.43  2156.58  2208.75  2260.93
 G, KJ/KG        -44026.6 -44430.2 -44834.4 -45239.2 -45644.6 -46050.6 -46457.1 -46864.3
 S, KJ/(KG)(K)    80.6621  80.7827  80.9024  81.0212  81.1390  81.2559  81.3719  81.4870

 M, (1/n)           2.016    2.016    2.016    2.016    2.016    2.016    2.016    2.016
 (dLV/dLP)t      -1.00000 -1.00000 -1.00000 -1.00000 -1.00000 -1.00000 -1.00000 -1.00000
 (dLV/dLT)p        1.0000   1.0000   1.0000   1.0000   1.0000   1.0000   1.0000   1.0000
 Cp, KJ/(KG)(K)   14.5436  14.5460  14.5484  14.5509  14.5535  14.5562  14.5590  14.5618
 GAMMAs            1.3959   1.3958   1.3957   1.3956   1.3955   1.3954   1.3953   1.3952
 SON VEL,M/SEC     1858.6   1866.3   1873.9   1881.5   1889.1   1896.6   1904.1   1911.6

 TRANSPORT PROPERTIES (GASES ONLY)
   CONDUCTIVITY IN UNITS OF MILLIWATTS/(CM)(K)

 VISC,MILLIPOISE  0.14377  0.14460  0.14542  0.14625  0.14707  0.14789  0.14871  0.14952

  WITH EQUILIBRIUM REACTIONS

 Cp, KJ/(KG)(K)   14.5436  14.5460  14.5484  14.5509  14.5535  14.5562  14.5590  14.5618
 CONDUCTIVITY      3.0340   3.0519   3.0698   3.0876   3.1054   3.1232   3.1410   3.1587
 PRANDTL NUMBER    0.6892   0.6892   0.6892   0.6892   0.6892   0.6893   0.6893   0.6893

  WITH FROZEN REACTIONS

 Cp, KJ/(KG)(K)   14.5436  14.5460  14.5484  14.5509  14.5535  14.5562  14.5590  14.5618
 CONDUCTIVITY      3.0340   3.0519   3.0698   3.0876   3.1054   3.1232   3.1410   3.1587
 PRANDTL NUMBER    0.6892   0.6892   0.6892   0.6892   0.6892   0.6893   0.6893   0.6893

 MASS FRACTIONS

 *H2              1.00000  1.00000  1.00000  1.00000  1.00000  1.00000  1.00000  1.00000

  * THERMODYNAMIC PROPERTIES FITTED TO 20000.K

 NOTE. WEIGHT FRACTION OF FUEL IN TOTAL FUELS AND OF OXIDANT IN TOTAL OXIDANTS









               THERMODYNAMIC EQUILIBRIUM PROPERTIES AT ASSIGNED

                           TEMPERATURE AND PRESSURE

 CASE =                

             REACTANT                    WT FRACTION      ENERGY      TEMP
                                          (SEE NOTE)     KJ/KG-MOL      K  
 FUEL        H2                           1.0000000         0.000      0.000
 OXIDANT     H2                           1.0000000         0.000      0.000

 O/F=    1.00000  %FUEL= 50.000000  R,EQ.RATIO= 0.000000  PHI,EQ.RATIO=-1.000000

 THERMODYNAMIC PROPERTIES

 P, BAR           0.25000  0.25000  0.25000  0.25000  0.25000  0.25000  0.25000  0.28000
 T, K              640.00   645.00   650.00   655.00   660.00   665.00   670.00   600.00
 RHO, KG/CU M    9.4709-3 9.3974-3 9.3252-3 9.2540-3 9.1839-3 9.1148-3 9.0468-3 1.1315-2
 H, KJ/KG         4952.80  5025.63  5098.47  5171.34  5244.21  5317.11  5390.02  4370.65
 U, KJ/KG         2313.12  2365.33  2417.55  2469.79  2522.05  2574.32  2626.61  1895.95
 G, KJ/KG        -47272.0 -47680.3 -48089.2 -48498.6 -48908.5 -49319.1 -49730.1 -43746.1
 S, KJ/(KG)(K)    81.6013  81.7146  81.8271  81.9388  82.0496  82.1597  82.2689  80.1946

 M, (1/n)           2.016    2.016    2.016    2.016    2.016    2.016    2.016    2.016
 (dLV/dLP)t      -1.00000 -1.00000 -1.00000 -1.00000 -1.00000 -1.00000 -1.00000 -1.00000
 (dLV/dLT)p        1.0000   1.0000   1.0000   1.0000   1.0000   1.0000   1.0000   1.0000
 Cp, KJ/(KG)(K)   14.5648  14.5678  14.5709  14.5740  14.5773  14.5806  14.5840  14.5436
 GAMMAs            1.3951   1.3949   1.3948   1.3947   1.3946   1.3945   1.3943   1.3959
 SON VEL,M/SEC     1919.0   1926.4   1933.8   1941.1   1948.4   1955.7   1962.9   1858.6

 TRANSPORT PROPERTIES (GASES ONLY)
   CONDUCTIVITY IN UNITS OF MILLIWATTS/(CM)(K)

 VISC,MILLIPOISE  0.15034  0.15115  0.15196  0.15278  0.15358  0.15439  0.15520  0.14377

  WITH EQUILIBRIUM REACTIONS

 Cp, KJ/(KG)(K)   14.5648  14.5678  14.5709  14.5740  14.5773  14.5806  14.5840  14.5436
 CONDUCTIVITY      3.1764   3.1942   3.2119   3.2296   3.2473   3.2650   3.2827   3.0340
 PRANDTL NUMBER    0.6893   0.6894   0.6894   0.6894   0.6894   0.6895   0.6895   0.6892

  WITH FROZEN REACTIONS

 Cp, KJ/(KG)(K)   14.5648  14.5678  14.5709  14.5740  14.5773  14.5806  14.5840  14.5436
 CONDUCTIVITY      3.1764   3.1942   3.2119   3.2296   3.2473   3.2650   3.2827   3.0340
 PRANDTL NUMBER    0.6893   0.6894   0.6894   0.6894   0.6894   0.6895   0.6895   0.6892

 MASS FRACTIONS

 *H2              1.00000  1.00000  1.00000  1.00000  1.00000  1.00000  1.00000  1.00000

  * THERMODYNAMIC PROPERTIES FITTED TO 20000.K

 NOTE. WEIGHT FRACTION OF FUEL IN TOTAL FUELS AND OF OXIDANT IN TOTAL OXIDANTS









               THERMODYNAMIC EQUILIBRIUM PROPERTIES AT ASSIGNED

                           TEMPERATURE AND PRESSURE

 CASE =                

             REACTANT                    WT FRACTION      ENERGY      TEMP
                                          (SEE NOTE)     KJ/KG-MOL      K  
 FUEL        H2                           1.0000000         0.000      0.000
 OXIDANT     H2                           1.0000000         0.000      0.000

 O/F=    1.00000  %FUEL= 50.000000  R,EQ.RATIO= 0.000000  PHI,EQ.RATIO=-1.000000

 THERMODYNAMIC PROPERTIES

 P, BAR           0.28000  0.28000  0.28000  0.28000  0.28000  0.28000  0.28000  0.28000
 T, K              605.00   610.00   615.00   620.00   625.00   630.00   635.00   640.00
 RHO, KG/CU M    1.1221-2 1.1129-2 1.1039-2 1.0950-2 1.0862-2 1.0776-2 1.0691-2 1.0607-2
 H, KJ/KG         4443.37  4516.11  4588.85  4661.62  4734.39  4807.18  4879.98  4952.80
 U, KJ/KG         1948.05  2000.17  2052.29  2104.43  2156.58  2208.75  2260.93  2313.12
 G, KJ/KG        -44147.4 -44549.3 -44951.7 -45354.8 -45758.4 -46162.7 -46567.5 -46972.9
 S, KJ/(KG)(K)    80.3153  80.4350  80.5538  80.6716  80.7885  80.9045  81.0196  81.1338

 M, (1/n)           2.016    2.016    2.016    2.016    2.016    2.016    2.016    2.016
 (dLV/dLP)t      -1.00000 -1.00000 -1.00000 -1.00000 -1.00000 -1.00000 -1.00000 -1.00000
 (dLV/dLT)p        1.0000   1.0000   1.0000   1.0000   1.0000   1.0000   1.0000   1.0000
 Cp, KJ/(KG)(K)   14.5460  14.5484  14.5509  14.5535  14.5562  14.5590  14.5618  14.5648
 GAMMAs            1.3958   1.3957   1.3956   1.3955   1.3954   1.3953   1.3952   1.3951
 SON VEL,M/SEC     1866.3   1873.9   1881.5   1889.1   1896.6   1904.1   1911.6   1919.0

 TRANSPORT PROPERTIES (GASES ONLY)
   CONDUCTIVITY IN UNITS OF MILLIWATTS/(CM)(K)

 VISC,MILLIPOISE  0.14460  0.14542  0.14625  0.14707  0.14789  0.14871  0.14952  0.15034

  WITH EQUILIBRIUM REACTIONS

 Cp, KJ/(KG)(K)   14.5460  14.5484  14.5509  14.5535  14.5562  14.5590  14.5618  14.5648
 CONDUCTIVITY      3.0519   3.0698   3.0876   3.1054   3.1232   3.1410   3.1587   3.1764
 PRANDTL NUMBER    0.6892   0.6892   0.6892   0.6892   0.6893   0.6893   0.6893   0.6893

  WITH FROZEN REACTIONS

 Cp, KJ/(KG)(K)   14.5460  14.5484  14.5509  14.5535  14.5562  14.5590  14.5618  14.5648
 CONDUCTIVITY      3.0519   3.0698   3.0876   3.1054   3.1232   3.1410   3.1587   3.1764
 PRANDTL NUMBER    0.6892   0.6892   0.6892   0.6892   0.6893   0.6893   0.6893   0.6893

 MASS FRACTIONS

 *H2              1.00000  1.00000  1.00000  1.00000  1.00000  1.00000  1.00000  1.00000

  * THERMODYNAMIC PROPERTIES FITTED TO 20000.K

 NOTE. WEIGHT FRACTION OF FUEL IN TOTAL FUELS AND OF OXIDANT IN TOTAL OXIDANTS









               THERMODYNAMIC EQUILIBRIUM PROPERTIES AT ASSIGNED

                           TEMPERATURE AND PRESSURE

 CASE =                

             REACTANT                    WT FRACTION      ENERGY      TEMP
                                          (SEE NOTE)     KJ/KG-MOL      K  
 FUEL        H2                           1.0000000         0.000      0.000
 OXIDANT     H2                           1.0000000         0.000      0.000

 O/F=    1.00000  %FUEL= 50.000000  R,EQ.RATIO= 0.000000  PHI,EQ.RATIO=-1.000000

 THERMODYNAMIC PROPERTIES

 P, BAR           0.28000  0.28000  0.28000  0.28000  0.28000  0.28000  0.31000  0.31000
 T, K              645.00   650.00   655.00   660.00   665.00   670.00   600.00   605.00
 RHO, KG/CU M    1.0525-2 1.0444-2 1.0364-2 1.0286-2 1.0209-2 1.0132-2 1.2527-2 1.2423-2
 H, KJ/KG         5025.63  5098.47  5171.34  5244.21  5317.11  5390.02  4370.65  4443.37
 U, KJ/KG         2365.33  2417.55  2469.79  2522.05  2574.32  2626.61  1895.95  1948.05
 G, KJ/KG        -47378.8 -47785.3 -48192.4 -48600.0 -49008.2 -49417.0 -43494.3 -43893.4
 S, KJ/(KG)(K)    81.2472  81.3597  81.4714  81.5822  81.6922  81.8015  79.7748  79.8955

 M, (1/n)           2.016    2.016    2.016    2.016    2.016    2.016    2.016    2.016
 (dLV/dLP)t      -1.00000 -1.00000 -1.00000 -1.00000 -1.00000 -1.00000 -1.00000 -1.00000
 (dLV/dLT)p        1.0000   1.0000   1.0000   1.0000   1.0000   1.0000   1.0000   1.0000
 Cp, KJ/(KG)(K)   14.5678  14.5709  14.5740  14.5773  14.5806  14.5840  14.5436  14.5460
 GAMMAs            1.3949   1.3948   1.3947   1.3946   1.3945   1.3943   1.3959   1.3958
 SON VEL,M/SEC     1926.4   1933.8   1941.1   1948.4   1955.7   1962.9   1858.6   1866.3

 TRANSPORT PROPERTIES (GASES ONLY)
   CONDUCTIVITY IN UNITS OF MILLIWATTS/(CM)(K)

 VISC,MILLIPOISE  0.15115  0.15196  0.15278  0.15358  0.15439  0.15520  0.14377  0.14460

  WITH EQUILIBRIUM REACTIONS

 Cp, KJ/(KG)(K)   14.5678  14.5709  14.5740  14.5773  14.5806  14.5840  14.5436  14.5460
 CONDUCTIVITY      3.1942   3.2119   3.2296   3.2473   3.2650   3.2827   3.0340   3.0519
 PRANDTL NUMBER    0.6894   0.6894   0.6894   0.6894   0.6895   0.6895   0.6892   0.6892

  WITH FROZEN REACTIONS

 Cp, KJ/(KG)(K)   14.5678  14.5709  14.5740  14.5773  14.5806  14.5840  14.5436  14.5460
 CONDUCTIVITY      3.1942   3.2119   3.2296   3.2473   3.2650   3.2827   3.0340   3.0519
 PRANDTL NUMBER    0.6894   0.6894   0.6894   0.6894   0.6895   0.6895   0.6892   0.6892

 MASS FRACTIONS

 *H2              1.00000  1.00000  1.00000  1.00000  1.00000  1.00000  1.00000  1.00000

  * THERMODYNAMIC PROPERTIES FITTED TO 20000.K

 NOTE. WEIGHT FRACTION OF FUEL IN TOTAL FUELS AND OF OXIDANT IN TOTAL OXIDANTS









               THERMODYNAMIC EQUILIBRIUM PROPERTIES AT ASSIGNED

                           TEMPERATURE AND PRESSURE

 CASE =                

             REACTANT                    WT FRACTION      ENERGY      TEMP
                                          (SEE NOTE)     KJ/KG-MOL      K  
 FUEL        H2                           1.0000000         0.000      0.000
 OXIDANT     H2                           1.0000000         0.000      0.000

 O/F=    1.00000  %FUEL= 50.000000  R,EQ.RATIO= 0.000000  PHI,EQ.RATIO=-1.000000

 THERMODYNAMIC PROPERTIES

 P, BAR           0.31000  0.31000  0.31000  0.31000  0.31000  0.31000  0.31000  0.31000
 T, K              610.00   615.00   620.00   625.00   630.00   635.00   640.00   645.00
 RHO, KG/CU M    1.2321-2 1.2221-2 1.2123-2 1.2026-2 1.1930-2 1.1836-2 1.1744-2 1.1653-2
 H, KJ/KG         4516.11  4588.85  4661.62  4734.39  4807.18  4879.98  4952.80  5025.63
 U, KJ/KG         2000.17  2052.29  2104.43  2156.58  2208.75  2260.93  2313.12  2365.33
 G, KJ/KG        -44293.2 -44693.5 -45094.5 -45496.1 -45898.2 -46300.9 -46704.2 -47108.0
 S, KJ/(KG)(K)    80.0152  80.1340  80.2518  80.3687  80.4847  80.5998  80.7140  80.8274

 M, (1/n)           2.016    2.016    2.016    2.016    2.016    2.016    2.016    2.016
 (dLV/dLP)t      -1.00000 -1.00000 -1.00000 -1.00000 -1.00000 -1.00000 -1.00000 -1.00000
 (dLV/dLT)p        1.0000   1.0000   1.0000   1.0000   1.0000   1.0000   1.0000   1.0000
 Cp, KJ/(KG)(K)   14.5484  14.5509  14.5535  14.5562  14.5590  14.5618  14.5648  14.5678
 GAMMAs            1.3957   1.3956   1.3955   1.3954   1.3953   1.3952   1.3951   1.3949
 SON VEL,M/SEC     1873.9   1881.5   1889.1   1896.6   1904.1   1911.6   1919.0   1926.4

 TRANSPORT PROPERTIES (GASES ONLY)
   CONDUCTIVITY IN UNITS OF MILLIWATTS/(CM)(K)

 VISC,MILLIPOISE  0.14542  0.14625  0.14707  0.14789  0.14871  0.14952  0.15034  0.15115

  WITH EQUILIBRIUM REACTIONS

 Cp, KJ/(KG)(K)   14.5484  14.5509  14.5535  14.5562  14.5590  14.5618  14.5648  14.5678
 CONDUCTIVITY      3.0698   3.0876   3.1054   3.1232   3.1410   3.1587   3.1764   3.1942
 PRANDTL NUMBER    0.6892   0.6892   0.6892   0.6893   0.6893   0.6893   0.6893   0.6894

  WITH FROZEN REACTIONS

 Cp, KJ/(KG)(K)   14.5484  14.5509  14.5535  14.5562  14.5590  14.5618  14.5648  14.5678
 CONDUCTIVITY      3.0698   3.0876   3.1054   3.1232   3.1410   3.1587   3.1764   3.1942
 PRANDTL NUMBER    0.6892   0.6892   0.6892   0.6893   0.6893   0.6893   0.6893   0.6894

 MASS FRACTIONS

 *H2              1.00000  1.00000  1.00000  1.00000  1.00000  1.00000  1.00000  1.00000

  * THERMODYNAMIC PROPERTIES FITTED TO 20000.K

 NOTE. WEIGHT FRACTION OF FUEL IN TOTAL FUELS AND OF OXIDANT IN TOTAL OXIDANTS









               THERMODYNAMIC EQUILIBRIUM PROPERTIES AT ASSIGNED

                           TEMPERATURE AND PRESSURE

 CASE =                

             REACTANT                    WT FRACTION      ENERGY      TEMP
                                          (SEE NOTE)     KJ/KG-MOL      K  
 FUEL        H2                           1.0000000         0.000      0.000
 OXIDANT     H2                           1.0000000         0.000      0.000

 O/F=    1.00000  %FUEL= 50.000000  R,EQ.RATIO= 0.000000  PHI,EQ.RATIO=-1.000000

 THERMODYNAMIC PROPERTIES

 P, BAR           0.31000  0.31000  0.31000  0.31000  0.31000  0.35000  0.35000  0.35000
 T, K              650.00   655.00   660.00   665.00   670.00   600.00   605.00   610.00
 RHO, KG/CU M    1.1563-2 1.1475-2 1.1388-2 1.1302-2 1.1218-2 1.4143-2 1.4026-2 1.3911-2
 H, KJ/KG         5098.47  5171.34  5244.21  5317.11  5390.02  4370.65  4443.37  4516.11
 U, KJ/KG         2417.55  2469.79  2522.05  2574.32  2626.61  1895.95  1948.05  2000.17
 G, KJ/KG        -47512.5 -47917.4 -48323.0 -48729.1 -49135.7 -43193.9 -43590.6 -43987.8
 S, KJ/(KG)(K)    80.9399  81.0516  81.1624  81.2724  81.3817  79.2743  79.3949  79.5147

 M, (1/n)           2.016    2.016    2.016    2.016    2.016    2.016    2.016    2.016
 (dLV/dLP)t      -1.00000 -1.00000 -1.00000 -1.00000 -1.00000 -1.00000 -1.00000 -1.00000
 (dLV/dLT)p        1.0000   1.0000   1.0000   1.0000   1.0000   1.0000   1.0000   1.0000
 Cp, KJ/(KG)(K)   14.5709  14.5740  14.5773  14.5806  14.5840  14.5436  14.5460  14.5484
 GAMMAs            1.3948   1.3947   1.3946   1.3945   1.3943   1.3959   1.3958   1.3957
 SON VEL,M/SEC     1933.8   1941.1   1948.4   1955.7   1962.9   1858.6   1866.3   1873.9

 TRANSPORT PROPERTIES (GASES ONLY)
   CONDUCTIVITY IN UNITS OF MILLIWATTS/(CM)(K)

 VISC,MILLIPOISE  0.15196  0.15278  0.15358  0.15439  0.15520  0.14377  0.14460  0.14542

  WITH EQUILIBRIUM REACTIONS

 Cp, KJ/(KG)(K)   14.5709  14.5740  14.5773  14.5806  14.5840  14.5436  14.5460  14.5484
 CONDUCTIVITY      3.2119   3.2296   3.2473   3.2650   3.2827   3.0340   3.0519   3.0698
 PRANDTL NUMBER    0.6894   0.6894   0.6894   0.6895   0.6895   0.6892   0.6892   0.6892

  WITH FROZEN REACTIONS

 Cp, KJ/(KG)(K)   14.5709  14.5740  14.5773  14.5806  14.5840  14.5436  14.5460  14.5484
 CONDUCTIVITY      3.2119   3.2296   3.2473   3.2650   3.2827   3.0340   3.0519   3.0698
 PRANDTL NUMBER    0.6894   0.6894   0.6894   0.6895   0.6895   0.6892   0.6892   0.6892

 MASS FRACTIONS

 *H2              1.00000  1.00000  1.00000  1.00000  1.00000  1.00000  1.00000  1.00000

  * THERMODYNAMIC PROPERTIES FITTED TO 20000.K

 NOTE. WEIGHT FRACTION OF FUEL IN TOTAL FUELS AND OF OXIDANT IN TOTAL OXIDANTS









               THERMODYNAMIC EQUILIBRIUM PROPERTIES AT ASSIGNED

                           TEMPERATURE AND PRESSURE

 CASE =                

             REACTANT                    WT FRACTION      ENERGY      TEMP
                                          (SEE NOTE)     KJ/KG-MOL      K  
 FUEL        H2                           1.0000000         0.000      0.000
 OXIDANT     H2                           1.0000000         0.000      0.000

 O/F=    1.00000  %FUEL= 50.000000  R,EQ.RATIO= 0.000000  PHI,EQ.RATIO=-1.000000

 THERMODYNAMIC PROPERTIES

 P, BAR           0.35000  0.35000  0.35000  0.35000  0.35000  0.35000  0.35000  0.35000
 T, K              615.00   620.00   625.00   630.00   635.00   640.00   645.00   650.00
 RHO, KG/CU M    1.3798-2 1.3687-2 1.3577-2 1.3470-2 1.3364-2 1.3259-2 1.3156-2 1.3055-2
 H, KJ/KG         4588.85  4661.62  4734.39  4807.18  4879.98  4952.80  5025.63  5098.47
 U, KJ/KG         2052.29  2104.43  2156.58  2208.75  2260.93  2313.12  2365.33  2417.55
 G, KJ/KG        -44385.7 -44784.2 -45183.2 -45582.8 -45983.1 -46383.8 -46785.2 -47187.1
 S, KJ/(KG)(K)    79.6334  79.7513  79.8682  79.9842  80.0993  80.2135  80.3268  80.4393

 M, (1/n)           2.016    2.016    2.016    2.016    2.016    2.016    2.016    2.016
 (dLV/dLP)t      -1.00000 -1.00000 -1.00000 -1.00000 -1.00000 -1.00000 -1.00000 -1.00000
 (dLV/dLT)p        1.0000   1.0000   1.0000   1.0000   1.0000   1.0000   1.0000   1.0000
 Cp, KJ/(KG)(K)   14.5509  14.5535  14.5562  14.5590  14.5618  14.5648  14.5678  14.5709
 GAMMAs            1.3956   1.3955   1.3954   1.3953   1.3952   1.3951   1.3949   1.3948
 SON VEL,M/SEC     1881.5   1889.1   1896.6   1904.1   1911.6   1919.0   1926.4   1933.8

 TRANSPORT PROPERTIES (GASES ONLY)
   CONDUCTIVITY IN UNITS OF MILLIWATTS/(CM)(K)

 VISC,MILLIPOISE  0.14625  0.14707  0.14789  0.14871  0.14952  0.15034  0.15115  0.15196

  WITH EQUILIBRIUM REACTIONS

 Cp, KJ/(KG)(K)   14.5509  14.5535  14.5562  14.5590  14.5618  14.5648  14.5678  14.5709
 CONDUCTIVITY      3.0876   3.1054   3.1232   3.1410   3.1587   3.1764   3.1942   3.2119
 PRANDTL NUMBER    0.6892   0.6892   0.6893   0.6893   0.6893   0.6893   0.6894   0.6894

  WITH FROZEN REACTIONS

 Cp, KJ/(KG)(K)   14.5509  14.5535  14.5562  14.5590  14.5618  14.5648  14.5678  14.5709
 CONDUCTIVITY      3.0876   3.1054   3.1232   3.1410   3.1587   3.1764   3.1942   3.2119
 PRANDTL NUMBER    0.6892   0.6892   0.6893   0.6893   0.6893   0.6893   0.6894   0.6894

 MASS FRACTIONS

 *H2              1.00000  1.00000  1.00000  1.00000  1.00000  1.00000  1.00000  1.00000

  * THERMODYNAMIC PROPERTIES FITTED TO 20000.K

 NOTE. WEIGHT FRACTION OF FUEL IN TOTAL FUELS AND OF OXIDANT IN TOTAL OXIDANTS









               THERMODYNAMIC EQUILIBRIUM PROPERTIES AT ASSIGNED

                           TEMPERATURE AND PRESSURE

 CASE =                

             REACTANT                    WT FRACTION      ENERGY      TEMP
                                          (SEE NOTE)     KJ/KG-MOL      K  
 FUEL        H2                           1.0000000         0.000      0.000
 OXIDANT     H2                           1.0000000         0.000      0.000

 O/F=    1.00000  %FUEL= 50.000000  R,EQ.RATIO= 0.000000  PHI,EQ.RATIO=-1.000000

 THERMODYNAMIC PROPERTIES

 P, BAR           0.35000  0.35000  0.35000  0.35000  0.39000  0.39000  0.39000  0.39000
 T, K              655.00   660.00   665.00   670.00   600.00   605.00   610.00   615.00
 RHO, KG/CU M    1.2956-2 1.2857-2 1.2761-2 1.2666-2 1.5759-2 1.5629-2 1.5501-2 1.5375-2
 H, KJ/KG         5171.34  5244.21  5317.11  5390.02  4370.65  4443.37  4516.11  4588.85
 U, KJ/KG         2469.79  2522.05  2574.32  2626.61  1895.95  1948.05  2000.17  2052.29
 G, KJ/KG        -47589.6 -47992.6 -48396.2 -48800.3 -42926.1 -43320.5 -43715.6 -44111.2
 S, KJ/(KG)(K)    80.5510  80.6619  80.7719  80.8811  78.8280  78.9486  79.0683  79.1871

 M, (1/n)           2.016    2.016    2.016    2.016    2.016    2.016    2.016    2.016
 (dLV/dLP)t      -1.00000 -1.00000 -1.00000 -1.00000 -1.00000 -1.00000 -1.00000 -1.00000
 (dLV/dLT)p        1.0000   1.0000   1.0000   1.0000   1.0000   1.0000   1.0000   1.0000
 Cp, KJ/(KG)(K)   14.5740  14.5773  14.5806  14.5840  14.5436  14.5460  14.5484  14.5509
 GAMMAs            1.3947   1.3946   1.3945   1.3943   1.3959   1.3958   1.3957   1.3956
 SON VEL,M/SEC     1941.1   1948.4   1955.7   1962.9   1858.6   1866.3   1873.9   1881.5

 TRANSPORT PROPERTIES (GASES ONLY)
   CONDUCTIVITY IN UNITS OF MILLIWATTS/(CM)(K)

 VISC,MILLIPOISE  0.15278  0.15358  0.15439  0.15520  0.14377  0.14460  0.14542  0.14625

  WITH EQUILIBRIUM REACTIONS

 Cp, KJ/(KG)(K)   14.5740  14.5773  14.5806  14.5840  14.5436  14.5460  14.5484  14.5509
 CONDUCTIVITY      3.2296   3.2473   3.2650   3.2827   3.0340   3.0519   3.0698   3.0876
 PRANDTL NUMBER    0.6894   0.6894   0.6895   0.6895   0.6892   0.6892   0.6892   0.6892

  WITH FROZEN REACTIONS

 Cp, KJ/(KG)(K)   14.5740  14.5773  14.5806  14.5840  14.5436  14.5460  14.5484  14.5509
 CONDUCTIVITY      3.2296   3.2473   3.2650   3.2827   3.0340   3.0519   3.0698   3.0876
 PRANDTL NUMBER    0.6894   0.6894   0.6895   0.6895   0.6892   0.6892   0.6892   0.6892

 MASS FRACTIONS

 *H2              1.00000  1.00000  1.00000  1.00000  1.00000  1.00000  1.00000  1.00000

  * THERMODYNAMIC PROPERTIES FITTED TO 20000.K

 NOTE. WEIGHT FRACTION OF FUEL IN TOTAL FUELS AND OF OXIDANT IN TOTAL OXIDANTS









               THERMODYNAMIC EQUILIBRIUM PROPERTIES AT ASSIGNED

                           TEMPERATURE AND PRESSURE

 CASE =                

             REACTANT                    WT FRACTION      ENERGY      TEMP
                                          (SEE NOTE)     KJ/KG-MOL      K  
 FUEL        H2                           1.0000000         0.000      0.000
 OXIDANT     H2                           1.0000000         0.000      0.000

 O/F=    1.00000  %FUEL= 50.000000  R,EQ.RATIO= 0.000000  PHI,EQ.RATIO=-1.000000

 THERMODYNAMIC PROPERTIES

 P, BAR           0.39000  0.39000  0.39000  0.39000  0.39000  0.39000  0.39000  0.39000
 T, K              620.00   625.00   630.00   635.00   640.00   645.00   650.00   655.00
 RHO, KG/CU M    1.5251-2 1.5129-2 1.5009-2 1.4891-2 1.4775-2 1.4660-2 1.4547-2 1.4436-2
 H, KJ/KG         4661.62  4734.39  4807.18  4879.98  4952.80  5025.63  5098.47  5171.34
 U, KJ/KG         2104.43  2156.58  2208.75  2260.93  2313.12  2365.33  2417.55  2469.79
 G, KJ/KG        -44507.4 -44904.3 -45301.7 -45699.6 -46098.2 -46497.3 -46897.0 -47297.2
 S, KJ/(KG)(K)    79.3049  79.4218  79.5378  79.6529  79.7672  79.8805  79.9930  80.1047

 M, (1/n)           2.016    2.016    2.016    2.016    2.016    2.016    2.016    2.016
 (dLV/dLP)t      -1.00000 -1.00000 -1.00000 -1.00000 -1.00000 -1.00000 -1.00000 -1.00000
 (dLV/dLT)p        1.0000   1.0000   1.0000   1.0000   1.0000   1.0000   1.0000   1.0000
 Cp, KJ/(KG)(K)   14.5535  14.5562  14.5590  14.5618  14.5648  14.5678  14.5709  14.5740
 GAMMAs            1.3955   1.3954   1.3953   1.3952   1.3951   1.3949   1.3948   1.3947
 SON VEL,M/SEC     1889.1   1896.6   1904.1   1911.6   1919.0   1926.4   1933.8   1941.1

 TRANSPORT PROPERTIES (GASES ONLY)
   CONDUCTIVITY IN UNITS OF MILLIWATTS/(CM)(K)

 VISC,MILLIPOISE  0.14707  0.14789  0.14871  0.14952  0.15034  0.15115  0.15196  0.15278

  WITH EQUILIBRIUM REACTIONS

 Cp, KJ/(KG)(K)   14.5535  14.5562  14.5590  14.5618  14.5648  14.5678  14.5709  14.5740
 CONDUCTIVITY      3.1054   3.1232   3.1410   3.1587   3.1764   3.1942   3.2119   3.2296
 PRANDTL NUMBER    0.6892   0.6893   0.6893   0.6893   0.6893   0.6894   0.6894   0.6894

  WITH FROZEN REACTIONS

 Cp, KJ/(KG)(K)   14.5535  14.5562  14.5590  14.5618  14.5648  14.5678  14.5709  14.5740
 CONDUCTIVITY      3.1054   3.1232   3.1410   3.1587   3.1764   3.1942   3.2119   3.2296
 PRANDTL NUMBER    0.6892   0.6893   0.6893   0.6893   0.6893   0.6894   0.6894   0.6894

 MASS FRACTIONS

 *H2              1.00000  1.00000  1.00000  1.00000  1.00000  1.00000  1.00000  1.00000

  * THERMODYNAMIC PROPERTIES FITTED TO 20000.K

 NOTE. WEIGHT FRACTION OF FUEL IN TOTAL FUELS AND OF OXIDANT IN TOTAL OXIDANTS









               THERMODYNAMIC EQUILIBRIUM PROPERTIES AT ASSIGNED

                           TEMPERATURE AND PRESSURE

 CASE =                

             REACTANT                    WT FRACTION      ENERGY      TEMP
                                          (SEE NOTE)     KJ/KG-MOL      K  
 FUEL        H2                           1.0000000         0.000      0.000
 OXIDANT     H2                           1.0000000         0.000      0.000

 O/F=    1.00000  %FUEL= 50.000000  R,EQ.RATIO= 0.000000  PHI,EQ.RATIO=-1.000000

 THERMODYNAMIC PROPERTIES

 P, BAR           0.39000  0.39000  0.39000  0.44000  0.44000  0.44000  0.44000  0.44000
 T, K              660.00   665.00   670.00   600.00   605.00   610.00   615.00   620.00
 RHO, KG/CU M    1.4327-2 1.4219-2 1.4113-2 1.7780-2 1.7633-2 1.7488-2 1.7346-2 1.7206-2
 H, KJ/KG         5244.21  5317.11  5390.02  4370.65  4443.37  4516.11  4588.85  4661.62
 U, KJ/KG         2522.05  2574.32  2626.61  1895.95  1948.05  2000.17  2052.29  2104.43
 G, KJ/KG        -47698.0 -48099.4 -48501.3 -42627.6 -43019.5 -43412.1 -43805.2 -44199.0
 S, KJ/(KG)(K)    80.2155  80.3256  80.4348  78.3304  78.4511  78.5708  78.6896  78.8074

 M, (1/n)           2.016    2.016    2.016    2.016    2.016    2.016    2.016    2.016
 (dLV/dLP)t      -1.00000 -1.00000 -1.00000 -1.00000 -1.00000 -1.00000 -1.00000 -1.00000
 (dLV/dLT)p        1.0000   1.0000   1.0000   1.0000   1.0000   1.0000   1.0000   1.0000
 Cp, KJ/(KG)(K)   14.5773  14.5806  14.5840  14.5436  14.5460  14.5484  14.5509  14.5535
 GAMMAs            1.3946   1.3945   1.3943   1.3959   1.3958   1.3957   1.3956   1.3955
 SON VEL,M/SEC     1948.4   1955.7   1962.9   1858.6   1866.3   1873.9   1881.5   1889.1

 TRANSPORT PROPERTIES (GASES ONLY)
   CONDUCTIVITY IN UNITS OF MILLIWATTS/(CM)(K)

 VISC,MILLIPOISE  0.15358  0.15439  0.15520  0.14377  0.14460  0.14542  0.14625  0.14707

  WITH EQUILIBRIUM REACTIONS

 Cp, KJ/(KG)(K)   14.5773  14.5806  14.5840  14.5436  14.5460  14.5484  14.5509  14.5535
 CONDUCTIVITY      3.2473   3.2650   3.2827   3.0340   3.0519   3.0698   3.0876   3.1054
 PRANDTL NUMBER    0.6894   0.6895   0.6895   0.6892   0.6892   0.6892   0.6892   0.6892

  WITH FROZEN REACTIONS

 Cp, KJ/(KG)(K)   14.5773  14.5806  14.5840  14.5436  14.5460  14.5484  14.5509  14.5535
 CONDUCTIVITY      3.2473   3.2650   3.2827   3.0340   3.0519   3.0698   3.0876   3.1054
 PRANDTL NUMBER    0.6894   0.6895   0.6895   0.6892   0.6892   0.6892   0.6892   0.6892

 MASS FRACTIONS

 *H2              1.00000  1.00000  1.00000  1.00000  1.00000  1.00000  1.00000  1.00000

  * THERMODYNAMIC PROPERTIES FITTED TO 20000.K

 NOTE. WEIGHT FRACTION OF FUEL IN TOTAL FUELS AND OF OXIDANT IN TOTAL OXIDANTS









               THERMODYNAMIC EQUILIBRIUM PROPERTIES AT ASSIGNED

                           TEMPERATURE AND PRESSURE

 CASE =                

             REACTANT                    WT FRACTION      ENERGY      TEMP
                                          (SEE NOTE)     KJ/KG-MOL      K  
 FUEL        H2                           1.0000000         0.000      0.000
 OXIDANT     H2                           1.0000000         0.000      0.000

 O/F=    1.00000  %FUEL= 50.000000  R,EQ.RATIO= 0.000000  PHI,EQ.RATIO=-1.000000

 THERMODYNAMIC PROPERTIES

 P, BAR           0.44000  0.44000  0.44000  0.44000  0.44000  0.44000  0.44000  0.44000
 T, K              625.00   630.00   635.00   640.00   645.00   650.00   655.00   660.00
 RHO, KG/CU M    1.7069-2 1.6933-2 1.6800-2 1.6669-2 1.6540-2 1.6412-2 1.6287-2 1.6164-2
 H, KJ/KG         4734.39  4807.18  4879.98  4952.80  5025.63  5098.47  5171.34  5244.21
 U, KJ/KG         2156.58  2208.75  2260.93  2313.12  2365.33  2417.55  2469.79  2522.05
 G, KJ/KG        -44593.3 -44988.2 -45383.7 -45779.8 -46176.4 -46573.6 -46971.4 -47369.7
 S, KJ/(KG)(K)    78.9243  79.0403  79.1554  79.2696  79.3830  79.4955  79.6072  79.7180

 M, (1/n)           2.016    2.016    2.016    2.016    2.016    2.016    2.016    2.016
 (dLV/dLP)t      -1.00000 -1.00000 -1.00000 -1.00000 -1.00000 -1.00000 -1.00000 -1.00000
 (dLV/dLT)p        1.0000   1.0000   1.0000   1.0000   1.0000   1.0000   1.0000   1.0000
 Cp, KJ/(KG)(K)   14.5562  14.5590  14.5618  14.5648  14.5678  14.5709  14.5740  14.5773
 GAMMAs            1.3954   1.3953   1.3952   1.3951   1.3949   1.3948   1.3947   1.3946
 SON VEL,M/SEC     1896.6   1904.1   1911.6   1919.0   1926.4   1933.8   1941.1   1948.4

 TRANSPORT PROPERTIES (GASES ONLY)
   CONDUCTIVITY IN UNITS OF MILLIWATTS/(CM)(K)

 VISC,MILLIPOISE  0.14789  0.14871  0.14952  0.15034  0.15115  0.15196  0.15278  0.15358

  WITH EQUILIBRIUM REACTIONS

 Cp, KJ/(KG)(K)   14.5562  14.5590  14.5618  14.5648  14.5678  14.5709  14.5740  14.5773
 CONDUCTIVITY      3.1232   3.1410   3.1587   3.1764   3.1942   3.2119   3.2296   3.2473
 PRANDTL NUMBER    0.6893   0.6893   0.6893   0.6893   0.6894   0.6894   0.6894   0.6894

  WITH FROZEN REACTIONS

 Cp, KJ/(KG)(K)   14.5562  14.5590  14.5618  14.5648  14.5678  14.5709  14.5740  14.5773
 CONDUCTIVITY      3.1232   3.1410   3.1587   3.1764   3.1942   3.2119   3.2296   3.2473
 PRANDTL NUMBER    0.6893   0.6893   0.6893   0.6893   0.6894   0.6894   0.6894   0.6894

 MASS FRACTIONS

 *H2              1.00000  1.00000  1.00000  1.00000  1.00000  1.00000  1.00000  1.00000

  * THERMODYNAMIC PROPERTIES FITTED TO 20000.K

 NOTE. WEIGHT FRACTION OF FUEL IN TOTAL FUELS AND OF OXIDANT IN TOTAL OXIDANTS









               THERMODYNAMIC EQUILIBRIUM PROPERTIES AT ASSIGNED

                           TEMPERATURE AND PRESSURE

 CASE =                

             REACTANT                    WT FRACTION      ENERGY      TEMP
                                          (SEE NOTE)     KJ/KG-MOL      K  
 FUEL        H2                           1.0000000         0.000      0.000
 OXIDANT     H2                           1.0000000         0.000      0.000

 O/F=    1.00000  %FUEL= 50.000000  R,EQ.RATIO= 0.000000  PHI,EQ.RATIO=-1.000000

 THERMODYNAMIC PROPERTIES

 P, BAR           0.44000  0.44000  0.49000  0.49000  0.49000  0.49000  0.49000  0.49000
 T, K              665.00   670.00   600.00   605.00   610.00   615.00   620.00   625.00
 RHO, KG/CU M    1.6042-2 1.5922-2 1.9800-2 1.9637-2 1.9476-2 1.9317-2 1.9162-2 1.9008-2
 H, KJ/KG         5317.11  5390.02  4370.65  4443.37  4516.11  4588.85  4661.62  4734.39
 U, KJ/KG         2574.32  2626.61  1895.95  1948.05  2000.17  2052.29  2104.43  2156.58
 G, KJ/KG        -47768.5 -48167.9 -42361.3 -42751.0 -43141.3 -43532.2 -43923.7 -44315.8
 S, KJ/(KG)(K)    79.8280  79.9373  77.8865  78.0072  78.1269  78.2456  78.3635  78.4804

 M, (1/n)           2.016    2.016    2.016    2.016    2.016    2.016    2.016    2.016
 (dLV/dLP)t      -1.00000 -1.00000 -1.00000 -1.00000 -1.00000 -1.00000 -1.00000 -1.00000
 (dLV/dLT)p        1.0000   1.0000   1.0000   1.0000   1.0000   1.0000   1.0000   1.0000
 Cp, KJ/(KG)(K)   14.5806  14.5840  14.5436  14.5460  14.5484  14.5509  14.5535  14.5562
 GAMMAs            1.3945   1.3943   1.3959   1.3958   1.3957   1.3956   1.3955   1.3954
 SON VEL,M/SEC     1955.7   1962.9   1858.6   1866.3   1873.9   1881.5   1889.1   1896.6

 TRANSPORT PROPERTIES (GASES ONLY)
   CONDUCTIVITY IN UNITS OF MILLIWATTS/(CM)(K)

 VISC,MILLIPOISE  0.15439  0.15520  0.14377  0.14460  0.14542  0.14625  0.14707  0.14789

  WITH EQUILIBRIUM REACTIONS

 Cp, KJ/(KG)(K)   14.5806  14.5840  14.5436  14.5460  14.5484  14.5509  14.5535  14.5562
 CONDUCTIVITY      3.2650   3.2827   3.0340   3.0519   3.0698   3.0876   3.1054   3.1232
 PRANDTL NUMBER    0.6895   0.6895   0.6892   0.6892   0.6892   0.6892   0.6892   0.6893

  WITH FROZEN REACTIONS

 Cp, KJ/(KG)(K)   14.5806  14.5840  14.5436  14.5460  14.5484  14.5509  14.5535  14.5562
 CONDUCTIVITY      3.2650   3.2827   3.0340   3.0519   3.0698   3.0876   3.1054   3.1232
 PRANDTL NUMBER    0.6895   0.6895   0.6892   0.6892   0.6892   0.6892   0.6892   0.6893

 MASS FRACTIONS

 *H2              1.00000  1.00000  1.00000  1.00000  1.00000  1.00000  1.00000  1.00000

  * THERMODYNAMIC PROPERTIES FITTED TO 20000.K

 NOTE. WEIGHT FRACTION OF FUEL IN TOTAL FUELS AND OF OXIDANT IN TOTAL OXIDANTS









               THERMODYNAMIC EQUILIBRIUM PROPERTIES AT ASSIGNED

                           TEMPERATURE AND PRESSURE

 CASE =                

             REACTANT                    WT FRACTION      ENERGY      TEMP
                                          (SEE NOTE)     KJ/KG-MOL      K  
 FUEL        H2                           1.0000000         0.000      0.000
 OXIDANT     H2                           1.0000000         0.000      0.000

 O/F=    1.00000  %FUEL= 50.000000  R,EQ.RATIO= 0.000000  PHI,EQ.RATIO=-1.000000

 THERMODYNAMIC PROPERTIES

 P, BAR           0.49000  0.49000  0.49000  0.49000  0.49000  0.49000  0.49000  0.49000
 T, K              630.00   635.00   640.00   645.00   650.00   655.00   660.00   665.00
 RHO, KG/CU M    1.8858-2 1.8709-2 1.8563-2 1.8419-2 1.8277-2 1.8138-2 1.8000-2 1.7865-2
 H, KJ/KG         4807.18  4879.98  4952.80  5025.63  5098.47  5171.34  5244.21  5317.11
 U, KJ/KG         2208.75  2260.93  2313.12  2365.33  2417.55  2469.79  2522.05  2574.32
 G, KJ/KG        -44708.5 -45101.8 -45495.7 -45890.1 -46285.0 -46680.6 -47076.7 -47473.3
 S, KJ/(KG)(K)    78.5964  78.7115  78.8257  78.9391  79.0516  79.1632  79.2741  79.3841

 M, (1/n)           2.016    2.016    2.016    2.016    2.016    2.016    2.016    2.016
 (dLV/dLP)t      -1.00000 -1.00000 -1.00000 -1.00000 -1.00000 -1.00000 -1.00000 -1.00000
 (dLV/dLT)p        1.0000   1.0000   1.0000   1.0000   1.0000   1.0000   1.0000   1.0000
 Cp, KJ/(KG)(K)   14.5590  14.5618  14.5648  14.5678  14.5709  14.5740  14.5773  14.5806
 GAMMAs            1.3953   1.3952   1.3951   1.3949   1.3948   1.3947   1.3946   1.3945
 SON VEL,M/SEC     1904.1   1911.6   1919.0   1926.4   1933.8   1941.1   1948.4   1955.7

 TRANSPORT PROPERTIES (GASES ONLY)
   CONDUCTIVITY IN UNITS OF MILLIWATTS/(CM)(K)

 VISC,MILLIPOISE  0.14871  0.14952  0.15034  0.15115  0.15196  0.15278  0.15358  0.15439

  WITH EQUILIBRIUM REACTIONS

 Cp, KJ/(KG)(K)   14.5590  14.5618  14.5648  14.5678  14.5709  14.5740  14.5773  14.5806
 CONDUCTIVITY      3.1410   3.1587   3.1764   3.1942   3.2119   3.2296   3.2473   3.2650
 PRANDTL NUMBER    0.6893   0.6893   0.6893   0.6894   0.6894   0.6894   0.6894   0.6895

  WITH FROZEN REACTIONS

 Cp, KJ/(KG)(K)   14.5590  14.5618  14.5648  14.5678  14.5709  14.5740  14.5773  14.5806
 CONDUCTIVITY      3.1410   3.1587   3.1764   3.1942   3.2119   3.2296   3.2473   3.2650
 PRANDTL NUMBER    0.6893   0.6893   0.6893   0.6894   0.6894   0.6894   0.6894   0.6895

 MASS FRACTIONS

 *H2              1.00000  1.00000  1.00000  1.00000  1.00000  1.00000  1.00000  1.00000

  * THERMODYNAMIC PROPERTIES FITTED TO 20000.K

 NOTE. WEIGHT FRACTION OF FUEL IN TOTAL FUELS AND OF OXIDANT IN TOTAL OXIDANTS









               THERMODYNAMIC EQUILIBRIUM PROPERTIES AT ASSIGNED

                           TEMPERATURE AND PRESSURE

 CASE =                

             REACTANT                    WT FRACTION      ENERGY      TEMP
                                          (SEE NOTE)     KJ/KG-MOL      K  
 FUEL        H2                           1.0000000         0.000      0.000
 OXIDANT     H2                           1.0000000         0.000      0.000

 O/F=    1.00000  %FUEL= 50.000000  R,EQ.RATIO= 0.000000  PHI,EQ.RATIO=-1.000000

 THERMODYNAMIC PROPERTIES

 P, BAR           0.49000
 T, K              670.00
 RHO, KG/CU M    1.7732-2
 H, KJ/KG         5390.02
 U, KJ/KG         2626.61
 G, KJ/KG        -47870.5
 S, KJ/(KG)(K)    79.4933

 M, (1/n)           2.016
 (dLV/dLP)t      -1.00000
 (dLV/dLT)p        1.0000
 Cp, KJ/(KG)(K)   14.5840
 GAMMAs            1.3943
 SON VEL,M/SEC     1962.9

 TRANSPORT PROPERTIES (GASES ONLY)
   CONDUCTIVITY IN UNITS OF MILLIWATTS/(CM)(K)

 VISC,MILLIPOISE  0.15520

  WITH EQUILIBRIUM REACTIONS

 Cp, KJ/(KG)(K)   14.5840
 CONDUCTIVITY      3.2827
 PRANDTL NUMBER    0.6895

  WITH FROZEN REACTIONS

 Cp, KJ/(KG)(K)   14.5840
 CONDUCTIVITY      3.2827
 PRANDTL NUMBER    0.6895

 MASS FRACTIONS

 *H2              1.00000

  * THERMODYNAMIC PROPERTIES FITTED TO 20000.K

 NOTE. WEIGHT FRACTION OF FUEL IN TOTAL FUELS AND OF OXIDANT IN TOTAL OXIDANTS



  
