
 *******************************************************************************

         NASA-GLENN CHEMICAL EQUILIBRIUM PROGRAM CEA2, MAY 21, 2004
                   BY  BONNIE MCBRIDE AND SANFORD GORDON
      REFS: NASA RP-1311, PART I, 1994 AND NASA RP-1311, PART II, 1996

 *******************************************************************************



  prob tp ions
  p,bar= 0.0225,0.025,0.028,0.031,0.035,0.039,0.044,0.049,0.054,0.06,0.067,0.074,
 0.0825,0.091,0.1
  t,k= 5900,5910,5920,5930,5940,5950,5960,5970,5980,5990,6000,6010,6020,6030,6040
  
  
  reac
  fuel H2                wt%=100.0000
  oxid H2                wt%=100.0000
  
  output short
  
  output massf
  
  output siunits
  
  output transport
  
 end





               THERMODYNAMIC EQUILIBRIUM PROPERTIES AT ASSIGNED

                           TEMPERATURE AND PRESSURE

 CASE =                

             REACTANT                    WT FRACTION      ENERGY      TEMP
                                          (SEE NOTE)     KJ/KG-MOL      K  
 FUEL        H2                           1.0000000         0.000      0.000
 OXIDANT     H2                           1.0000000         0.000      0.000

 O/F=    1.00000  %FUEL= 50.000000  R,EQ.RATIO= 0.000000  PHI,EQ.RATIO=-1.000000

 THERMODYNAMIC PROPERTIES

 P, BAR           0.02250  0.02250  0.02250  0.02250  0.02250  0.02250  0.02250  0.02250
 T, K             5900.00  5910.00  5920.00  5930.00  5940.00  5950.00  5960.00  5970.00
 RHO, KG/CU M    4.6221-5 4.6142-5 4.6064-5 4.5986-5 4.5908-5 4.5830-5 4.5753-5 4.5676-5
 H, KJ/KG        332201.2 332419.3 332637.6 332856.1 333074.9 333293.9 333513.1 333732.6
 U, KJ/KG        283521.8 283656.9 283792.2 283927.7 284063.5 284199.5 284335.8 284472.2
 G, KJ/KG       -887602.5-889670.1-891738.1-893806.5-895875.3-897944.4-900013.9-902083.7
 S, KJ/(KG)(K)   206.7464 206.7833 206.8202 206.8571 206.8940 206.9308 206.9676 207.0044

 M, (1/n)           1.008    1.008    1.008    1.008    1.008    1.008    1.008    1.008
 (dLV/dLP)t      -1.00025 -1.00026 -1.00026 -1.00026 -1.00026 -1.00027 -1.00027 -1.00027
 (dLV/dLT)p        1.0055   1.0056   1.0056   1.0057   1.0058   1.0059   1.0060   1.0061
 Cp, KJ/(KG)(K)   21.7944  21.8171  21.8402  21.8639  21.8880  21.9125  21.9376  21.9632
 GAMMAs            1.6193   1.6185   1.6176   1.6167   1.6158   1.6149   1.6140   1.6130
 SON VEL,M/SEC     8878.5   8883.7   8888.9   8894.0   8899.1   8904.1   8909.0   8913.9

 TRANSPORT PROPERTIES (GASES ONLY)
   CONDUCTIVITY IN UNITS OF MILLIWATTS/(CM)(K)

 VISC,MILLIPOISE  0.62281  0.62370  0.62460  0.62549  0.62637  0.62726  0.62815  0.62904

  WITH EQUILIBRIUM REACTIONS

 Cp, KJ/(KG)(K)   21.7944  21.8171  21.8402  21.8639  21.8880  21.9125  21.9376  21.9632
 CONDUCTIVITY     19.5791  19.6105  19.6420  19.6737  19.7055  19.7374  19.7694  19.8015
 PRANDTL NUMBER    0.6933   0.6939   0.6945   0.6951   0.6957   0.6964   0.6970   0.6977

  WITH FROZEN REACTIONS

 Cp, KJ/(KG)(K)   20.6290  20.6291  20.6293  20.6295  20.6296  20.6298  20.6300  20.6302
 CONDUCTIVITY     19.3109  19.3396  19.3683  19.3971  19.4258  19.4545  19.4832  19.5119
 PRANDTL NUMBER    0.6653   0.6653   0.6653   0.6652   0.6652   0.6652   0.6651   0.6651

 MASS FRACTIONS

 *H               0.99949  0.99949  0.99948  0.99948  0.99947  0.99947  0.99946  0.99946
 *H+              0.00031  0.00032  0.00033  0.00033  0.00034  0.00035  0.00036  0.00037
 *H2              0.00020  0.00019  0.00019  0.00019  0.00018  0.00018  0.00018  0.00018

  * THERMODYNAMIC PROPERTIES FITTED TO 20000.K

 NOTE. WEIGHT FRACTION OF FUEL IN TOTAL FUELS AND OF OXIDANT IN TOTAL OXIDANTS









               THERMODYNAMIC EQUILIBRIUM PROPERTIES AT ASSIGNED

                           TEMPERATURE AND PRESSURE

 CASE =                

             REACTANT                    WT FRACTION      ENERGY      TEMP
                                          (SEE NOTE)     KJ/KG-MOL      K  
 FUEL        H2                           1.0000000         0.000      0.000
 OXIDANT     H2                           1.0000000         0.000      0.000

 O/F=    1.00000  %FUEL= 50.000000  R,EQ.RATIO= 0.000000  PHI,EQ.RATIO=-1.000000

 THERMODYNAMIC PROPERTIES

 P, BAR           0.02250  0.02250  0.02250  0.02250  0.02250  0.02250  0.02250  0.02500
 T, K             5980.00  5990.00  6000.00  6010.00  6020.00  6030.00  6040.00  5900.00
 RHO, KG/CU M    4.5599-5 4.5522-5 4.5446-5 4.5370-5 4.5294-5 4.5218-5 4.5143-5 5.1358-5
 H, KJ/KG        333952.4 334172.4 334392.7 334613.3 334834.1 335055.2 335276.6 332173.6
 U, KJ/KG        284609.0 284746.0 284883.2 285020.7 285158.5 285296.5 285434.8 283495.4
 G, KJ/KG       -904154.0-906224.6-908295.5-910366.9-912438.6-914510.6-916583.1-882473.6
 S, KJ/(KG)(K)   207.0412 207.0780 207.1147 207.1514 207.1881 207.2248 207.2615 205.8724

 M, (1/n)           1.008    1.008    1.008    1.008    1.008    1.008    1.008    1.008
 (dLV/dLP)t      -1.00027 -1.00028 -1.00028 -1.00029 -1.00029 -1.00029 -1.00030 -1.00026
 (dLV/dLT)p        1.0062   1.0064   1.0065   1.0066   1.0067   1.0068   1.0070   1.0053
 Cp, KJ/(KG)(K)   21.9893  22.0159  22.0431  22.0699  22.0973  22.1252  22.1538  21.7461
 GAMMAs            1.6121   1.6111   1.6101   1.6091   1.6081   1.6071   1.6061   1.6213
 SON VEL,M/SEC     8918.8   8923.6   8928.3   8933.1   8937.9   8942.6   8947.2   8883.7

 TRANSPORT PROPERTIES (GASES ONLY)
   CONDUCTIVITY IN UNITS OF MILLIWATTS/(CM)(K)

 VISC,MILLIPOISE  0.62992  0.63081  0.63169  0.63258  0.63346  0.63434  0.63522  0.62292

  WITH EQUILIBRIUM REACTIONS

 Cp, KJ/(KG)(K)   21.9893  22.0159  22.0431  22.0699  22.0973  22.1252  22.1538  21.7461
 CONDUCTIVITY     19.8337  19.8660  19.8985  19.9310  19.9637  19.9965  20.0294  19.5801
 PRANDTL NUMBER    0.6984   0.6991   0.6998   0.7005   0.7012   0.7019   0.7026   0.6918

  WITH FROZEN REACTIONS

 Cp, KJ/(KG)(K)   20.6304  20.6306  20.6308  20.6301  20.6295  20.6289  20.6284  20.6287
 CONDUCTIVITY     19.5406  19.5694  19.5981  19.6268  19.6555  19.6841  19.7128  19.3120
 PRANDTL NUMBER    0.6651   0.6650   0.6650   0.6649   0.6649   0.6648   0.6647   0.6654

 MASS FRACTIONS

 *H               0.99945  0.99944  0.99944  0.99943  0.99942  0.99941  0.99941  0.99949
 *H+              0.00038  0.00039  0.00039  0.00040  0.00041  0.00042  0.00043  0.00029
 *H2              0.00017  0.00017  0.00017  0.00017  0.00016  0.00016  0.00016  0.00022

  * THERMODYNAMIC PROPERTIES FITTED TO 20000.K

 NOTE. WEIGHT FRACTION OF FUEL IN TOTAL FUELS AND OF OXIDANT IN TOTAL OXIDANTS









               THERMODYNAMIC EQUILIBRIUM PROPERTIES AT ASSIGNED

                           TEMPERATURE AND PRESSURE

 CASE =                

             REACTANT                    WT FRACTION      ENERGY      TEMP
                                          (SEE NOTE)     KJ/KG-MOL      K  
 FUEL        H2                           1.0000000         0.000      0.000
 OXIDANT     H2                           1.0000000         0.000      0.000

 O/F=    1.00000  %FUEL= 50.000000  R,EQ.RATIO= 0.000000  PHI,EQ.RATIO=-1.000000

 THERMODYNAMIC PROPERTIES

 P, BAR           0.02500  0.02500  0.02500  0.02500  0.02500  0.02500  0.02500  0.02500
 T, K             5910.00  5920.00  5930.00  5940.00  5950.00  5960.00  5970.00  5980.00
 RHO, KG/CU M    5.1270-5 5.1183-5 5.1097-5 5.1010-5 5.0924-5 5.0838-5 5.0752-5 5.0667-5
 H, KJ/KG        332391.1 332608.9 332826.9 333045.2 333263.6 333482.3 333701.2 333920.4
 U, KJ/KG        283630.0 283764.9 283899.9 284035.2 284170.6 284306.3 284442.3 284578.4
 G, KJ/KG       -884532.5-886591.8-888651.5-890711.5-892771.9-894832.6-896893.7-898955.2
 S, KJ/(KG)(K)   205.9093 205.9461 205.9829 206.0196 206.0564 206.0931 206.1298 206.1665

 M, (1/n)           1.008    1.008    1.008    1.008    1.008    1.008    1.008    1.008
 (dLV/dLP)t      -1.00026 -1.00026 -1.00026 -1.00026 -1.00027 -1.00027 -1.00027 -1.00027
 (dLV/dLT)p        1.0054   1.0055   1.0056   1.0057   1.0058   1.0059   1.0060   1.0061
 Cp, KJ/(KG)(K)   21.7674  21.7891  21.8113  21.8340  21.8571  21.8807  21.9048  21.9293
 GAMMAs            1.6205   1.6196   1.6188   1.6179   1.6171   1.6162   1.6153   1.6144
 SON VEL,M/SEC     8889.1   8894.4   8899.6   8904.8   8909.9   8915.0   8920.0   8925.0

 TRANSPORT PROPERTIES (GASES ONLY)
   CONDUCTIVITY IN UNITS OF MILLIWATTS/(CM)(K)

 VISC,MILLIPOISE  0.62382  0.62471  0.62560  0.62649  0.62739  0.62828  0.62917  0.63005

  WITH EQUILIBRIUM REACTIONS

 Cp, KJ/(KG)(K)   21.7674  21.7891  21.8113  21.8340  21.8571  21.8807  21.9048  21.9293
 CONDUCTIVITY     19.6112  19.6424  19.6737  19.7051  19.7366  19.7683  19.8001  19.8319
 PRANDTL NUMBER    0.6924   0.6930   0.6936   0.6942   0.6948   0.6954   0.6960   0.6967

  WITH FROZEN REACTIONS

 Cp, KJ/(KG)(K)   20.6288  20.6290  20.6291  20.6293  20.6295  20.6296  20.6298  20.6300
 CONDUCTIVITY     19.3407  19.3695  19.3982  19.4270  19.4557  19.4845  19.5132  19.5420
 PRANDTL NUMBER    0.6654   0.6653   0.6653   0.6653   0.6652   0.6652   0.6652   0.6651

 MASS FRACTIONS

 *H               0.99948  0.99948  0.99948  0.99947  0.99947  0.99946  0.99946  0.99945
 *H+              0.00030  0.00031  0.00032  0.00032  0.00033  0.00034  0.00035  0.00036
 *H2              0.00022  0.00021  0.00021  0.00021  0.00020  0.00020  0.00020  0.00019

  * THERMODYNAMIC PROPERTIES FITTED TO 20000.K

 NOTE. WEIGHT FRACTION OF FUEL IN TOTAL FUELS AND OF OXIDANT IN TOTAL OXIDANTS









               THERMODYNAMIC EQUILIBRIUM PROPERTIES AT ASSIGNED

                           TEMPERATURE AND PRESSURE

 CASE =                

             REACTANT                    WT FRACTION      ENERGY      TEMP
                                          (SEE NOTE)     KJ/KG-MOL      K  
 FUEL        H2                           1.0000000         0.000      0.000
 OXIDANT     H2                           1.0000000         0.000      0.000

 O/F=    1.00000  %FUEL= 50.000000  R,EQ.RATIO= 0.000000  PHI,EQ.RATIO=-1.000000

 THERMODYNAMIC PROPERTIES

 P, BAR           0.02500  0.02500  0.02500  0.02500  0.02500  0.02500  0.02800  0.02800
 T, K             5990.00  6000.00  6010.00  6020.00  6030.00  6040.00  5900.00  5910.00
 RHO, KG/CU M    5.0582-5 5.0497-5 5.0412-5 5.0328-5 5.0244-5 5.0160-5 5.7522-5 5.7425-5
 H, KJ/KG        334139.8 334359.5 334579.4 334799.6 335020.0 335240.7 332144.5 332361.6
 U, KJ/KG        284714.8 284851.5 284988.4 285125.5 285262.9 285400.5 283467.8 283601.9
 G, KJ/KG       -901017.0-903079.3-905141.8-907204.8-909268.1-911331.8-876957.1-879006.6
 S, KJ/(KG)(K)   206.2031 206.2398 206.2764 206.3130 206.3496 206.3862 204.9325 204.9692

 M, (1/n)           1.008    1.008    1.008    1.008    1.008    1.008    1.008    1.008
 (dLV/dLP)t      -1.00028 -1.00028 -1.00028 -1.00029 -1.00029 -1.00029 -1.00026 -1.00026
 (dLV/dLT)p        1.0062   1.0063   1.0064   1.0065   1.0066   1.0067   1.0052   1.0053
 Cp, KJ/(KG)(K)   21.9544  21.9800  22.0052  22.0309  22.0572  22.0841  21.6984  21.7183
 GAMMAs            1.6134   1.6125   1.6116   1.6106   1.6097   1.6087   1.6232   1.6225
 SON VEL,M/SEC     8930.0   8934.8   8939.8   8944.7   8949.5   8954.3   8889.0   8894.4

 TRANSPORT PROPERTIES (GASES ONLY)
   CONDUCTIVITY IN UNITS OF MILLIWATTS/(CM)(K)

 VISC,MILLIPOISE  0.63094  0.63183  0.63272  0.63360  0.63449  0.63537  0.62304  0.62393

  WITH EQUILIBRIUM REACTIONS

 Cp, KJ/(KG)(K)   21.9544  21.9800  22.0052  22.0309  22.0572  22.0841  21.6984  21.7183
 CONDUCTIVITY     19.8639  19.8960  19.9282  19.9605  19.9930  20.0255  19.5829  19.6136
 PRANDTL NUMBER    0.6973   0.6980   0.6987   0.6993   0.7000   0.7007   0.6903   0.6909

  WITH FROZEN REACTIONS

 Cp, KJ/(KG)(K)   20.6302  20.6303  20.6297  20.6291  20.6285  20.6279  20.6283  20.6285
 CONDUCTIVITY     19.5707  19.5995  19.6282  19.6570  19.6857  19.7144  19.3131  19.3419
 PRANDTL NUMBER    0.6651   0.6651   0.6650   0.6649   0.6649   0.6648   0.6655   0.6654

 MASS FRACTIONS

 *H               0.99944  0.99944  0.99943  0.99943  0.99942  0.99941  0.99948  0.99947
 *H+              0.00037  0.00037  0.00038  0.00039  0.00040  0.00041  0.00028  0.00028
 *H2              0.00019  0.00019  0.00018  0.00018  0.00018  0.00018  0.00024  0.00024

  * THERMODYNAMIC PROPERTIES FITTED TO 20000.K

 NOTE. WEIGHT FRACTION OF FUEL IN TOTAL FUELS AND OF OXIDANT IN TOTAL OXIDANTS









               THERMODYNAMIC EQUILIBRIUM PROPERTIES AT ASSIGNED

                           TEMPERATURE AND PRESSURE

 CASE =                

             REACTANT                    WT FRACTION      ENERGY      TEMP
                                          (SEE NOTE)     KJ/KG-MOL      K  
 FUEL        H2                           1.0000000         0.000      0.000
 OXIDANT     H2                           1.0000000         0.000      0.000

 O/F=    1.00000  %FUEL= 50.000000  R,EQ.RATIO= 0.000000  PHI,EQ.RATIO=-1.000000

 THERMODYNAMIC PROPERTIES

 P, BAR           0.02800  0.02800  0.02800  0.02800  0.02800  0.02800  0.02800  0.02800
 T, K             5920.00  5930.00  5940.00  5950.00  5960.00  5970.00  5980.00  5990.00
 RHO, KG/CU M    5.7327-5 5.7230-5 5.7133-5 5.7036-5 5.6940-5 5.6844-5 5.6749-5 5.6653-5
 H, KJ/KG        332578.8 332796.3 333014.0 333231.9 333450.1 333668.4 333887.0 334105.8
 U, KJ/KG        283736.2 283870.8 284005.5 284140.5 284275.6 284411.0 284546.6 284682.4
 G, KJ/KG       -881056.5-883106.7-885157.3-887208.3-889259.6-891311.4-893363.4-895415.9
 S, KJ/(KG)(K)   205.0060 205.0427 205.0794 205.1160 205.1526 205.1892 205.2258 205.2624

 M, (1/n)           1.008    1.008    1.008    1.008    1.008    1.008    1.008    1.008
 (dLV/dLP)t      -1.00026 -1.00027 -1.00027 -1.00027 -1.00027 -1.00027 -1.00028 -1.00028
 (dLV/dLT)p        1.0054   1.0055   1.0055   1.0056   1.0057   1.0058   1.0059   1.0060
 Cp, KJ/(KG)(K)   21.7385  21.7592  21.7804  21.8020  21.8240  21.8465  21.8695  21.8930
 GAMMAs            1.6217   1.6209   1.6201   1.6193   1.6184   1.6176   1.6167   1.6158
 SON VEL,M/SEC     8899.8   8905.2   8910.5   8915.8   8921.0   8926.2   8931.3   8936.4

 TRANSPORT PROPERTIES (GASES ONLY)
   CONDUCTIVITY IN UNITS OF MILLIWATTS/(CM)(K)

 VISC,MILLIPOISE  0.62483  0.62572  0.62662  0.62751  0.62841  0.62930  0.63019  0.63108

  WITH EQUILIBRIUM REACTIONS

 Cp, KJ/(KG)(K)   21.7385  21.7592  21.7804  21.8020  21.8240  21.8465  21.8695  21.8930
 CONDUCTIVITY     19.6444  19.6753  19.7063  19.7375  19.7688  19.8001  19.8316  19.8632
 PRANDTL NUMBER    0.6914   0.6920   0.6926   0.6931   0.6937   0.6943   0.6949   0.6956

  WITH FROZEN REACTIONS

 Cp, KJ/(KG)(K)   20.6286  20.6288  20.6289  20.6291  20.6292  20.6294  20.6296  20.6297
 CONDUCTIVITY     19.3706  19.3994  19.4282  19.4570  19.4858  19.5146  19.5434  19.5722
 PRANDTL NUMBER    0.6654   0.6654   0.6653   0.6653   0.6653   0.6652   0.6652   0.6652

 MASS FRACTIONS

 *H               0.99947  0.99947  0.99946  0.99946  0.99946  0.99945  0.99945  0.99944
 *H+              0.00029  0.00030  0.00031  0.00031  0.00032  0.00033  0.00034  0.00035
 *H2              0.00024  0.00023  0.00023  0.00023  0.00022  0.00022  0.00022  0.00021

  * THERMODYNAMIC PROPERTIES FITTED TO 20000.K

 NOTE. WEIGHT FRACTION OF FUEL IN TOTAL FUELS AND OF OXIDANT IN TOTAL OXIDANTS









               THERMODYNAMIC EQUILIBRIUM PROPERTIES AT ASSIGNED

                           TEMPERATURE AND PRESSURE

 CASE =                

             REACTANT                    WT FRACTION      ENERGY      TEMP
                                          (SEE NOTE)     KJ/KG-MOL      K  
 FUEL        H2                           1.0000000         0.000      0.000
 OXIDANT     H2                           1.0000000         0.000      0.000

 O/F=    1.00000  %FUEL= 50.000000  R,EQ.RATIO= 0.000000  PHI,EQ.RATIO=-1.000000

 THERMODYNAMIC PROPERTIES

 P, BAR           0.02800  0.02800  0.02800  0.02800  0.02800  0.03100  0.03100  0.03100
 T, K             6000.00  6010.00  6020.00  6030.00  6040.00  5900.00  5910.00  5920.00
 RHO, KG/CU M    5.6558-5 5.6464-5 5.6369-5 5.6275-5 5.6181-5 6.3687-5 6.3579-5 6.3471-5
 H, KJ/KG        334324.9 334544.2 334763.7 334983.4 335203.5 332118.8 332335.5 332552.4
 U, KJ/KG        284818.4 284954.7 285091.2 285227.9 285364.9 283443.4 283577.2 283711.1
 G, KJ/KG       -897468.7-899521.8-901575.4-903629.3-905683.5-872002.7-874043.8-876085.2
 S, KJ/(KG)(K)   205.2989 205.3354 205.3719 205.4084 205.4449 204.0884 204.1251 204.1618

 M, (1/n)           1.008    1.008    1.008    1.008    1.008    1.008    1.008    1.008
 (dLV/dLP)t      -1.00028 -1.00028 -1.00029 -1.00029 -1.00029 -1.00027 -1.00027 -1.00027
 (dLV/dLT)p        1.0061   1.0062   1.0063   1.0064   1.0065   1.0051   1.0052   1.0053
 Cp, KJ/(KG)(K)   21.9169  21.9405  21.9645  21.9891  22.0143  21.6593  21.6778  21.6968
 GAMMAs            1.6149   1.6141   1.6132   1.6123   1.6114   1.6249   1.6241   1.6234
 SON VEL,M/SEC     8941.4   8946.5   8951.6   8956.5   8961.5   8893.3   8898.9   8904.4

 TRANSPORT PROPERTIES (GASES ONLY)
   CONDUCTIVITY IN UNITS OF MILLIWATTS/(CM)(K)

 VISC,MILLIPOISE  0.63197  0.63286  0.63375  0.63464  0.63553  0.62314  0.62404  0.62493

  WITH EQUILIBRIUM REACTIONS

 Cp, KJ/(KG)(K)   21.9169  21.9405  21.9645  21.9891  22.0143  21.6593  21.6778  21.6968
 CONDUCTIVITY     19.8949  19.9268  19.9587  19.9908  20.0229  19.5870  19.6173  19.6477
 PRANDTL NUMBER    0.6962   0.6968   0.6974   0.6981   0.6987   0.6891   0.6896   0.6901

  WITH FROZEN REACTIONS

 Cp, KJ/(KG)(K)   20.6299  20.6293  20.6286  20.6280  20.6275  20.6280  20.6282  20.6283
 CONDUCTIVITY     19.6010  19.6297  19.6585  19.6873  19.7161  19.3140  19.3428  19.3717
 PRANDTL NUMBER    0.6651   0.6651   0.6650   0.6650   0.6649   0.6655   0.6655   0.6655

 MASS FRACTIONS

 *H               0.99944  0.99943  0.99943  0.99942  0.99941  0.99946  0.99946  0.99946
 *H+              0.00035  0.00036  0.00037  0.00038  0.00039  0.00026  0.00027  0.00028
 *H2              0.00021  0.00021  0.00020  0.00020  0.00020  0.00027  0.00027  0.00026

  * THERMODYNAMIC PROPERTIES FITTED TO 20000.K

 NOTE. WEIGHT FRACTION OF FUEL IN TOTAL FUELS AND OF OXIDANT IN TOTAL OXIDANTS









               THERMODYNAMIC EQUILIBRIUM PROPERTIES AT ASSIGNED

                           TEMPERATURE AND PRESSURE

 CASE =                

             REACTANT                    WT FRACTION      ENERGY      TEMP
                                          (SEE NOTE)     KJ/KG-MOL      K  
 FUEL        H2                           1.0000000         0.000      0.000
 OXIDANT     H2                           1.0000000         0.000      0.000

 O/F=    1.00000  %FUEL= 50.000000  R,EQ.RATIO= 0.000000  PHI,EQ.RATIO=-1.000000

 THERMODYNAMIC PROPERTIES

 P, BAR           0.03100  0.03100  0.03100  0.03100  0.03100  0.03100  0.03100  0.03100
 T, K             5930.00  5940.00  5950.00  5960.00  5970.00  5980.00  5990.00  6000.00
 RHO, KG/CU M    6.3363-5 6.3256-5 6.3149-5 6.3043-5 6.2936-5 6.2831-5 6.2725-5 6.2620-5
 H, KJ/KG        332769.4 332986.7 333204.2 333421.8 333639.7 333857.8 334076.1 334294.6
 U, KJ/KG        283845.2 283979.5 284114.0 284248.7 284383.7 284518.8 284654.1 284789.6
 G, KJ/KG       -878127.0-880169.2-882211.7-884254.6-886297.9-888341.5-890385.5-892429.8
 S, KJ/(KG)(K)   204.1984 204.2350 204.2716 204.3081 204.3447 204.3812 204.4176 204.4541

 M, (1/n)           1.008    1.008    1.008    1.008    1.008    1.008    1.008    1.008
 (dLV/dLP)t      -1.00027 -1.00027 -1.00027 -1.00028 -1.00028 -1.00028 -1.00028 -1.00028
 (dLV/dLT)p        1.0054   1.0054   1.0055   1.0056   1.0057   1.0058   1.0058   1.0059
 Cp, KJ/(KG)(K)   21.7163  21.7361  21.7564  21.7771  21.7982  21.8199  21.8419  21.8644
 GAMMAs            1.6226   1.6219   1.6211   1.6203   1.6195   1.6187   1.6178   1.6170
 SON VEL,M/SEC     8909.9   8915.3   8920.7   8926.1   8931.4   8936.6   8941.9   8947.0

 TRANSPORT PROPERTIES (GASES ONLY)
   CONDUCTIVITY IN UNITS OF MILLIWATTS/(CM)(K)

 VISC,MILLIPOISE  0.62583  0.62673  0.62762  0.62852  0.62941  0.63031  0.63120  0.63209

  WITH EQUILIBRIUM REACTIONS

 Cp, KJ/(KG)(K)   21.7163  21.7361  21.7564  21.7771  21.7982  21.8199  21.8419  21.8644
 CONDUCTIVITY     19.6783  19.7090  19.7398  19.7707  19.8017  19.8328  19.8641  19.8954
 PRANDTL NUMBER    0.6906   0.6912   0.6917   0.6923   0.6929   0.6935   0.6940   0.6947

  WITH FROZEN REACTIONS

 Cp, KJ/(KG)(K)   20.6285  20.6286  20.6288  20.6289  20.6291  20.6292  20.6294  20.6296
 CONDUCTIVITY     19.4005  19.4293  19.4581  19.4869  19.5157  19.5446  19.5734  19.6022
 PRANDTL NUMBER    0.6654   0.6654   0.6654   0.6654   0.6653   0.6653   0.6653   0.6652

 MASS FRACTIONS

 *H               0.99946  0.99945  0.99945  0.99945  0.99944  0.99944  0.99944  0.99943
 *H+              0.00028  0.00029  0.00030  0.00031  0.00031  0.00032  0.00033  0.00034
 *H2              0.00026  0.00025  0.00025  0.00025  0.00024  0.00024  0.00024  0.00023

  * THERMODYNAMIC PROPERTIES FITTED TO 20000.K

 NOTE. WEIGHT FRACTION OF FUEL IN TOTAL FUELS AND OF OXIDANT IN TOTAL OXIDANTS









               THERMODYNAMIC EQUILIBRIUM PROPERTIES AT ASSIGNED

                           TEMPERATURE AND PRESSURE

 CASE =                

             REACTANT                    WT FRACTION      ENERGY      TEMP
                                          (SEE NOTE)     KJ/KG-MOL      K  
 FUEL        H2                           1.0000000         0.000      0.000
 OXIDANT     H2                           1.0000000         0.000      0.000

 O/F=    1.00000  %FUEL= 50.000000  R,EQ.RATIO= 0.000000  PHI,EQ.RATIO=-1.000000

 THERMODYNAMIC PROPERTIES

 P, BAR           0.03100  0.03100  0.03100  0.03100  0.03500  0.03500  0.03500  0.03500
 T, K             6010.00  6020.00  6030.00  6040.00  5900.00  5910.00  5920.00  5930.00
 RHO, KG/CU M    6.2515-5 6.2411-5 6.2306-5 6.2203-5 7.1907-5 7.1785-5 7.1663-5 7.1542-5
 H, KJ/KG        334513.4 334732.4 334951.6 335171.0 332088.6 332304.9 332521.3 332737.9
 U, KJ/KG        284925.4 285061.4 285197.5 285334.0 283414.8 283548.2 283681.7 283815.3
 G, KJ/KG       -894474.6-896519.7-898565.1-900610.9-866095.5-868126.5-870157.9-872189.6
 S, KJ/(KG)(K)   204.4905 204.5269 204.5633 204.5997 203.0821 203.1187 203.1553 203.1918

 M, (1/n)           1.008    1.008    1.008    1.008    1.008    1.008    1.008    1.008
 (dLV/dLP)t      -1.00029 -1.00029 -1.00029 -1.00029 -1.00028 -1.00028 -1.00028 -1.00028
 (dLV/dLT)p        1.0060   1.0061   1.0062   1.0063   1.0051   1.0051   1.0052   1.0053
 Cp, KJ/(KG)(K)   21.8866  21.9092  21.9323  21.9560  21.6171  21.6342  21.6518  21.6697
 GAMMAs            1.6162   1.6153   1.6145   1.6136   1.6267   1.6260   1.6253   1.6246
 SON VEL,M/SEC     8952.2   8957.4   8962.5   8967.6   8898.1   8903.8   8909.5   8915.1

 TRANSPORT PROPERTIES (GASES ONLY)
   CONDUCTIVITY IN UNITS OF MILLIWATTS/(CM)(K)

 VISC,MILLIPOISE  0.63299  0.63388  0.63477  0.63566  0.62326  0.62416  0.62506  0.62595

  WITH EQUILIBRIUM REACTIONS

 Cp, KJ/(KG)(K)   21.8866  21.9092  21.9323  21.9560  21.6171  21.6342  21.6518  21.6697
 CONDUCTIVITY     19.9269  19.9585  19.9902  20.0220  19.5939  19.6238  19.6538  19.6839
 PRANDTL NUMBER    0.6952   0.6958   0.6964   0.6971   0.6876   0.6881   0.6886   0.6891

  WITH FROZEN REACTIONS

 Cp, KJ/(KG)(K)   20.6289  20.6282  20.6276  20.6271  20.6277  20.6279  20.6280  20.6281
 CONDUCTIVITY     19.6310  19.6599  19.6887  19.7175  19.3152  19.3440  19.3728  19.4017
 PRANDTL NUMBER    0.6652   0.6651   0.6650   0.6650   0.6656   0.6656   0.6656   0.6655

 MASS FRACTIONS

 *H               0.99943  0.99942  0.99942  0.99941  0.99945  0.99944  0.99944  0.99944
 *H+              0.00034  0.00035  0.00036  0.00037  0.00025  0.00025  0.00026  0.00027
 *H2              0.00023  0.00022  0.00022  0.00022  0.00031  0.00030  0.00030  0.00029

  * THERMODYNAMIC PROPERTIES FITTED TO 20000.K

 NOTE. WEIGHT FRACTION OF FUEL IN TOTAL FUELS AND OF OXIDANT IN TOTAL OXIDANTS









               THERMODYNAMIC EQUILIBRIUM PROPERTIES AT ASSIGNED

                           TEMPERATURE AND PRESSURE

 CASE =                

             REACTANT                    WT FRACTION      ENERGY      TEMP
                                          (SEE NOTE)     KJ/KG-MOL      K  
 FUEL        H2                           1.0000000         0.000      0.000
 OXIDANT     H2                           1.0000000         0.000      0.000

 O/F=    1.00000  %FUEL= 50.000000  R,EQ.RATIO= 0.000000  PHI,EQ.RATIO=-1.000000

 THERMODYNAMIC PROPERTIES

 P, BAR           0.03500  0.03500  0.03500  0.03500  0.03500  0.03500  0.03500  0.03500
 T, K             5940.00  5950.00  5960.00  5970.00  5980.00  5990.00  6000.00  6010.00
 RHO, KG/CU M    7.1421-5 7.1300-5 7.1180-5 7.1060-5 7.0940-5 7.0821-5 7.0702-5 7.0584-5
 H, KJ/KG        332954.7 333171.7 333388.9 333606.2 333823.8 334041.5 334259.5 334477.7
 U, KJ/KG        283949.2 284083.2 284217.4 284351.8 284486.4 284621.2 284756.2 284891.4
 G, KJ/KG       -874221.7-876254.2-878287.0-880320.2-882353.8-884387.7-886422.0-888456.6
 S, KJ/(KG)(K)   203.2284 203.2649 203.3013 203.3378 203.3742 203.4106 203.4469 203.4832

 M, (1/n)           1.008    1.008    1.008    1.008    1.008    1.008    1.008    1.008
 (dLV/dLP)t      -1.00028 -1.00028 -1.00028 -1.00028 -1.00029 -1.00029 -1.00029 -1.00029
 (dLV/dLT)p        1.0053   1.0054   1.0055   1.0055   1.0056   1.0057   1.0058   1.0059
 Cp, KJ/(KG)(K)   21.6880  21.7068  21.7259  21.7455  21.7656  21.7860  21.8069  21.8274
 GAMMAs            1.6239   1.6231   1.6224   1.6216   1.6209   1.6201   1.6193   1.6185
 SON VEL,M/SEC     8920.7   8926.2   8931.7   8937.2   8942.6   8947.9   8953.2   8958.6

 TRANSPORT PROPERTIES (GASES ONLY)
   CONDUCTIVITY IN UNITS OF MILLIWATTS/(CM)(K)

 VISC,MILLIPOISE  0.62685  0.62775  0.62865  0.62955  0.63044  0.63134  0.63224  0.63313

  WITH EQUILIBRIUM REACTIONS

 Cp, KJ/(KG)(K)   21.6880  21.7068  21.7259  21.7455  21.7656  21.7860  21.8069  21.8274
 CONDUCTIVITY     19.7141  19.7445  19.7749  19.8055  19.8362  19.8670  19.8980  19.9290
 PRANDTL NUMBER    0.6896   0.6901   0.6907   0.6912   0.6918   0.6923   0.6929   0.6934

  WITH FROZEN REACTIONS

 Cp, KJ/(KG)(K)   20.6283  20.6284  20.6285  20.6287  20.6288  20.6290  20.6292  20.6285
 CONDUCTIVITY     19.4305  19.4594  19.4882  19.5171  19.5459  19.5748  19.6037  19.6325
 PRANDTL NUMBER    0.6655   0.6655   0.6654   0.6654   0.6654   0.6653   0.6653   0.6653

 MASS FRACTIONS

 *H               0.99944  0.99944  0.99943  0.99943  0.99943  0.99943  0.99942  0.99942
 *H+              0.00027  0.00028  0.00029  0.00029  0.00030  0.00031  0.00032  0.00032
 *H2              0.00029  0.00028  0.00028  0.00027  0.00027  0.00027  0.00026  0.00026

  * THERMODYNAMIC PROPERTIES FITTED TO 20000.K

 NOTE. WEIGHT FRACTION OF FUEL IN TOTAL FUELS AND OF OXIDANT IN TOTAL OXIDANTS









               THERMODYNAMIC EQUILIBRIUM PROPERTIES AT ASSIGNED

                           TEMPERATURE AND PRESSURE

 CASE =                

             REACTANT                    WT FRACTION      ENERGY      TEMP
                                          (SEE NOTE)     KJ/KG-MOL      K  
 FUEL        H2                           1.0000000         0.000      0.000
 OXIDANT     H2                           1.0000000         0.000      0.000

 O/F=    1.00000  %FUEL= 50.000000  R,EQ.RATIO= 0.000000  PHI,EQ.RATIO=-1.000000

 THERMODYNAMIC PROPERTIES

 P, BAR           0.03500  0.03500  0.03500  0.03900  0.03900  0.03900  0.03900  0.03900
 T, K             6020.00  6030.00  6040.00  5900.00  5910.00  5920.00  5930.00  5940.00
 RHO, KG/CU M    7.0466-5 7.0349-5 7.0231-5 8.0128-5 7.9991-5 7.9856-5 7.9720-5 7.9585-5
 H, KJ/KG        334696.0 334914.6 335133.4 332061.9 332277.9 332493.9 332710.2 332926.6
 U, KJ/KG        285026.8 285162.4 285298.2 283389.6 283522.6 283655.8 283789.1 283922.6
 G, KJ/KG       -890491.6-892527.0-894562.8-860828.4-862850.5-864872.8-866895.6-868918.7
 S, KJ/(KG)(K)   203.5195 203.5558 203.5921 202.1848 202.2214 202.2579 202.2944 202.3309

 M, (1/n)           1.008    1.008    1.008    1.008    1.008    1.008    1.008    1.008
 (dLV/dLP)t      -1.00029 -1.00030 -1.00030 -1.00029 -1.00029 -1.00029 -1.00029 -1.00029
 (dLV/dLT)p        1.0059   1.0060   1.0061   1.0051   1.0051   1.0052   1.0052   1.0053
 Cp, KJ/(KG)(K)   21.8483  21.8698  21.8917  21.5837  21.5995  21.6158  21.6324  21.6494
 GAMMAs            1.6177   1.6169   1.6161   1.6281   1.6275   1.6268   1.6262   1.6255
 SON VEL,M/SEC     8963.9   8969.2   8974.4   8902.0   8907.8   8913.6   8919.3   8925.1

 TRANSPORT PROPERTIES (GASES ONLY)
   CONDUCTIVITY IN UNITS OF MILLIWATTS/(CM)(K)

 VISC,MILLIPOISE  0.63403  0.63492  0.63581  0.62336  0.62426  0.62516  0.62606  0.62696

  WITH EQUILIBRIUM REACTIONS

 Cp, KJ/(KG)(K)   21.8483  21.8698  21.8917  21.5837  21.5995  21.6158  21.6324  21.6494
 CONDUCTIVITY     19.9602  19.9914  20.0228  19.6022  19.6317  19.6612  19.6909  19.7207
 PRANDTL NUMBER    0.6940   0.6946   0.6952   0.6864   0.6868   0.6873   0.6878   0.6883

  WITH FROZEN REACTIONS

 Cp, KJ/(KG)(K)   20.6278  20.6272  20.6266  20.6275  20.6276  20.6277  20.6278  20.6280
 CONDUCTIVITY     19.6614  19.6902  19.7191  19.3162  19.3450  19.3739  19.4028  19.4316
 PRANDTL NUMBER    0.6652   0.6651   0.6651   0.6657   0.6656   0.6656   0.6656   0.6656

 MASS FRACTIONS

 *H               0.99941  0.99941  0.99941  0.99942  0.99942  0.99942  0.99942  0.99942
 *H+              0.00033  0.00034  0.00035  0.00024  0.00024  0.00025  0.00025  0.00026
 *H2              0.00025  0.00025  0.00025  0.00034  0.00034  0.00033  0.00033  0.00032

  * THERMODYNAMIC PROPERTIES FITTED TO 20000.K

 NOTE. WEIGHT FRACTION OF FUEL IN TOTAL FUELS AND OF OXIDANT IN TOTAL OXIDANTS









               THERMODYNAMIC EQUILIBRIUM PROPERTIES AT ASSIGNED

                           TEMPERATURE AND PRESSURE

 CASE =                

             REACTANT                    WT FRACTION      ENERGY      TEMP
                                          (SEE NOTE)     KJ/KG-MOL      K  
 FUEL        H2                           1.0000000         0.000      0.000
 OXIDANT     H2                           1.0000000         0.000      0.000

 O/F=    1.00000  %FUEL= 50.000000  R,EQ.RATIO= 0.000000  PHI,EQ.RATIO=-1.000000

 THERMODYNAMIC PROPERTIES

 P, BAR           0.03900  0.03900  0.03900  0.03900  0.03900  0.03900  0.03900  0.03900
 T, K             5950.00  5960.00  5970.00  5980.00  5990.00  6000.00  6010.00  6020.00
 RHO, KG/CU M    7.9451-5 7.9317-5 7.9183-5 7.9050-5 7.8917-5 7.8785-5 7.8653-5 7.8522-5
 H, KJ/KG        333143.2 333359.9 333576.9 333794.0 334011.3 334228.8 334446.5 334664.4
 U, KJ/KG        284056.2 284190.0 284324.0 284458.2 284592.5 284727.1 284861.8 284996.7
 G, KJ/KG       -870942.2-872966.1-874990.3-877014.9-879039.8-881065.1-883090.8-885116.8
 S, KJ/(KG)(K)   202.3673 202.4037 202.4401 202.4764 202.5127 202.5490 202.5852 202.6215

 M, (1/n)           1.008    1.008    1.008    1.008    1.008    1.008    1.008    1.008
 (dLV/dLP)t      -1.00029 -1.00029 -1.00029 -1.00029 -1.00029 -1.00030 -1.00030 -1.00030
 (dLV/dLT)p        1.0053   1.0054   1.0055   1.0055   1.0056   1.0057   1.0058   1.0058
 Cp, KJ/(KG)(K)   21.6669  21.6847  21.7029  21.7216  21.7407  21.7602  21.7792  21.7988
 GAMMAs            1.6248   1.6241   1.6234   1.6227   1.6219   1.6212   1.6205   1.6197
 SON VEL,M/SEC     8930.7   8936.3   8941.9   8947.4   8952.9   8958.3   8963.8   8969.3

 TRANSPORT PROPERTIES (GASES ONLY)
   CONDUCTIVITY IN UNITS OF MILLIWATTS/(CM)(K)

 VISC,MILLIPOISE  0.62786  0.62876  0.62966  0.63056  0.63146  0.63236  0.63326  0.63415

  WITH EQUILIBRIUM REACTIONS

 Cp, KJ/(KG)(K)   21.6669  21.6847  21.7029  21.7216  21.7407  21.7602  21.7792  21.7988
 CONDUCTIVITY     19.7507  19.7807  19.8109  19.8412  19.8716  19.9021  19.9327  19.9635
 PRANDTL NUMBER    0.6888   0.6893   0.6898   0.6903   0.6909   0.6914   0.6919   0.6925

  WITH FROZEN REACTIONS

 Cp, KJ/(KG)(K)   20.6281  20.6282  20.6284  20.6285  20.6287  20.6288  20.6281  20.6275
 CONDUCTIVITY     19.4605  19.4894  19.5182  19.5471  19.5760  19.6049  19.6338  19.6627
 PRANDTL NUMBER    0.6655   0.6655   0.6655   0.6654   0.6654   0.6654   0.6653   0.6653

 MASS FRACTIONS

 *H               0.99942  0.99942  0.99942  0.99941  0.99941  0.99941  0.99941  0.99940
 *H+              0.00027  0.00027  0.00028  0.00029  0.00029  0.00030  0.00031  0.00031
 *H2              0.00032  0.00031  0.00031  0.00030  0.00030  0.00029  0.00029  0.00028

  * THERMODYNAMIC PROPERTIES FITTED TO 20000.K

 NOTE. WEIGHT FRACTION OF FUEL IN TOTAL FUELS AND OF OXIDANT IN TOTAL OXIDANTS









               THERMODYNAMIC EQUILIBRIUM PROPERTIES AT ASSIGNED

                           TEMPERATURE AND PRESSURE

 CASE =                

             REACTANT                    WT FRACTION      ENERGY      TEMP
                                          (SEE NOTE)     KJ/KG-MOL      K  
 FUEL        H2                           1.0000000         0.000      0.000
 OXIDANT     H2                           1.0000000         0.000      0.000

 O/F=    1.00000  %FUEL= 50.000000  R,EQ.RATIO= 0.000000  PHI,EQ.RATIO=-1.000000

 THERMODYNAMIC PROPERTIES

 P, BAR           0.03900  0.03900  0.04400  0.04400  0.04400  0.04400  0.04400  0.04400
 T, K             6030.00  6040.00  5900.00  5910.00  5920.00  5930.00  5940.00  5950.00
 RHO, KG/CU M    7.8391-5 7.8260-5 9.0404-5 9.0250-5 9.0097-5 8.9944-5 8.9792-5 8.9640-5
 H, KJ/KG        334882.5 335100.8 332032.3 332247.8 332463.6 332679.4 332895.5 333111.7
 U, KJ/KG        285131.8 285267.1 283361.7 283494.3 283627.2 283760.1 283893.2 284026.5
 G, KJ/KG       -887143.2-889170.0-854957.3-856969.3-858981.7-860994.5-863007.6-865021.1
 S, KJ/(KG)(K)   202.6577 202.6938 201.1847 201.2212 201.2576 201.2941 201.3305 201.3668

 M, (1/n)           1.008    1.008    1.008    1.008    1.008    1.008    1.008    1.008
 (dLV/dLP)t      -1.00030 -1.00030 -1.00030 -1.00030 -1.00030 -1.00030 -1.00030 -1.00030
 (dLV/dLT)p        1.0059   1.0060   1.0051   1.0051   1.0052   1.0052   1.0053   1.0053
 Cp, KJ/(KG)(K)   21.8188  21.8392  21.5510  21.5655  21.5803  21.5955  21.6112  21.6272
 GAMMAs            1.6190   1.6182   1.6296   1.6290   1.6284   1.6278   1.6272   1.6265
 SON VEL,M/SEC     8974.7   8980.0   8905.9   8911.8   8917.8   8923.7   8929.5   8935.3

 TRANSPORT PROPERTIES (GASES ONLY)
   CONDUCTIVITY IN UNITS OF MILLIWATTS/(CM)(K)

 VISC,MILLIPOISE  0.63505  0.63595  0.62347  0.62437  0.62528  0.62618  0.62708  0.62799

  WITH EQUILIBRIUM REACTIONS

 Cp, KJ/(KG)(K)   21.8188  21.8392  21.5510  21.5655  21.5803  21.5955  21.6112  21.6272
 CONDUCTIVITY     19.9944  20.0254  19.6139  19.6429  19.6719  19.7011  19.7305  19.7599
 PRANDTL NUMBER    0.6930   0.6935   0.6850   0.6855   0.6859   0.6864   0.6869   0.6873

  WITH FROZEN REACTIONS

 Cp, KJ/(KG)(K)   20.6269  20.6263  20.6272  20.6273  20.6274  20.6275  20.6277  20.6278
 CONDUCTIVITY     19.6916  19.7205  19.3173  19.3462  19.3751  19.4039  19.4328  19.4617
 PRANDTL NUMBER    0.6652   0.6652   0.6657   0.6657   0.6657   0.6657   0.6656   0.6656

 MASS FRACTIONS

 *H               0.99940  0.99940  0.99939  0.99939  0.99939  0.99939  0.99939  0.99939
 *H+              0.00032  0.00033  0.00022  0.00023  0.00023  0.00024  0.00024  0.00025
 *H2              0.00028  0.00027  0.00038  0.00038  0.00037  0.00037  0.00036  0.00036

  * THERMODYNAMIC PROPERTIES FITTED TO 20000.K

 NOTE. WEIGHT FRACTION OF FUEL IN TOTAL FUELS AND OF OXIDANT IN TOTAL OXIDANTS









               THERMODYNAMIC EQUILIBRIUM PROPERTIES AT ASSIGNED

                           TEMPERATURE AND PRESSURE

 CASE =                

             REACTANT                    WT FRACTION      ENERGY      TEMP
                                          (SEE NOTE)     KJ/KG-MOL      K  
 FUEL        H2                           1.0000000         0.000      0.000
 OXIDANT     H2                           1.0000000         0.000      0.000

 O/F=    1.00000  %FUEL= 50.000000  R,EQ.RATIO= 0.000000  PHI,EQ.RATIO=-1.000000

 THERMODYNAMIC PROPERTIES

 P, BAR           0.04400  0.04400  0.04400  0.04400  0.04400  0.04400  0.04400  0.04400
 T, K             5960.00  5970.00  5980.00  5990.00  6000.00  6010.00  6020.00  6030.00
 RHO, KG/CU M    8.9489-5 8.9338-5 8.9188-5 8.9038-5 8.8889-5 8.8740-5 8.8592-5 8.8444-5
 H, KJ/KG        333328.0 333544.5 333761.2 333978.1 334195.1 334412.4 334629.8 334847.3
 U, KJ/KG        284159.9 284293.5 284427.2 284561.1 284695.2 284829.5 284963.9 285098.5
 G, KJ/KG       -867034.9-869049.1-871063.7-873078.7-875094.0-877109.6-879125.6-881142.0
 S, KJ/(KG)(K)   201.4032 201.4395 201.4757 201.5120 201.5482 201.5844 201.6205 201.6566

 M, (1/n)           1.008    1.008    1.008    1.008    1.008    1.008    1.008    1.008
 (dLV/dLP)t      -1.00030 -1.00030 -1.00030 -1.00030 -1.00031 -1.00031 -1.00031 -1.00031
 (dLV/dLT)p        1.0054   1.0054   1.0055   1.0055   1.0056   1.0057   1.0057   1.0058
 Cp, KJ/(KG)(K)   21.6435  21.6603  21.6775  21.6951  21.7131  21.7306  21.7486  21.7670
 GAMMAs            1.6259   1.6252   1.6246   1.6239   1.6232   1.6225   1.6218   1.6211
 SON VEL,M/SEC     8941.0   8946.8   8952.4   8958.0   8963.6   8969.2   8974.8   8980.4

 TRANSPORT PROPERTIES (GASES ONLY)
   CONDUCTIVITY IN UNITS OF MILLIWATTS/(CM)(K)

 VISC,MILLIPOISE  0.62889  0.62979  0.63069  0.63159  0.63249  0.63339  0.63429  0.63519

  WITH EQUILIBRIUM REACTIONS

 Cp, KJ/(KG)(K)   21.6435  21.6603  21.6775  21.6951  21.7131  21.7306  21.7486  21.7670
 CONDUCTIVITY     19.7895  19.8192  19.8490  19.8789  19.9090  19.9392  19.9695  19.9999
 PRANDTL NUMBER    0.6878   0.6883   0.6888   0.6893   0.6898   0.6903   0.6908   0.6913

  WITH FROZEN REACTIONS

 Cp, KJ/(KG)(K)   20.6279  20.6281  20.6282  20.6283  20.6285  20.6278  20.6271  20.6265
 CONDUCTIVITY     19.4906  19.5195  19.5484  19.5773  19.6063  19.6352  19.6641  19.6930
 PRANDTL NUMBER    0.6656   0.6656   0.6655   0.6655   0.6655   0.6654   0.6654   0.6653

 MASS FRACTIONS

 *H               0.99939  0.99939  0.99939  0.99939  0.99939  0.99939  0.99938  0.99938
 *H+              0.00026  0.00026  0.00027  0.00028  0.00028  0.00029  0.00030  0.00030
 *H2              0.00035  0.00034  0.00034  0.00033  0.00033  0.00032  0.00032  0.00031

  * THERMODYNAMIC PROPERTIES FITTED TO 20000.K

 NOTE. WEIGHT FRACTION OF FUEL IN TOTAL FUELS AND OF OXIDANT IN TOTAL OXIDANTS









               THERMODYNAMIC EQUILIBRIUM PROPERTIES AT ASSIGNED

                           TEMPERATURE AND PRESSURE

 CASE =                

             REACTANT                    WT FRACTION      ENERGY      TEMP
                                          (SEE NOTE)     KJ/KG-MOL      K  
 FUEL        H2                           1.0000000         0.000      0.000
 OXIDANT     H2                           1.0000000         0.000      0.000

 O/F=    1.00000  %FUEL= 50.000000  R,EQ.RATIO= 0.000000  PHI,EQ.RATIO=-1.000000

 THERMODYNAMIC PROPERTIES

 P, BAR           0.04400  0.04900  0.04900  0.04900  0.04900  0.04900  0.04900  0.04900
 T, K             6040.00  5900.00  5910.00  5920.00  5930.00  5940.00  5950.00  5960.00
 RHO, KG/CU M    8.8297-5 1.0068-4 1.0051-4 1.0034-4 1.0017-4 9.9999-5 9.9830-5 9.9661-5
 H, KJ/KG        335065.1 332005.7 332221.0 332436.4 332652.0 332867.8 333083.7 333299.7
 U, KJ/KG        285233.3 283336.7 283469.1 283601.7 283734.3 283867.2 284000.1 284133.2
 G, KJ/KG       -883158.8-849718.9-851722.0-853725.5-855729.3-857733.5-859738.1-861743.0
 S, KJ/(KG)(K)   201.6927 200.2923 200.3288 200.3652 200.4016 200.4379 200.4742 200.5105

 M, (1/n)           1.008    1.008    1.008    1.008    1.008    1.008    1.008    1.008
 (dLV/dLP)t      -1.00031 -1.00032 -1.00032 -1.00032 -1.00032 -1.00032 -1.00032 -1.00032
 (dLV/dLT)p        1.0059   1.0051   1.0051   1.0052   1.0052   1.0053   1.0053   1.0054
 Cp, KJ/(KG)(K)   21.7859  21.5260  21.5393  21.5529  21.5669  21.5813  21.5960  21.6111
 GAMMAs            1.6204   1.6308   1.6303   1.6297   1.6291   1.6285   1.6279   1.6273
 SON VEL,M/SEC     8985.9   8909.0   8915.1   8921.1   8927.1   8933.1   8939.0   8944.9

 TRANSPORT PROPERTIES (GASES ONLY)
   CONDUCTIVITY IN UNITS OF MILLIWATTS/(CM)(K)

 VISC,MILLIPOISE  0.63609  0.62357  0.62447  0.62538  0.62628  0.62719  0.62809  0.62900

  WITH EQUILIBRIUM REACTIONS

 Cp, KJ/(KG)(K)   21.7859  21.5260  21.5393  21.5529  21.5669  21.5813  21.5960  21.6111
 CONDUCTIVITY     20.0304  19.6268  19.6553  19.6839  19.7126  19.7415  19.7705  19.7996
 PRANDTL NUMBER    0.6918   0.6839   0.6843   0.6848   0.6852   0.6856   0.6861   0.6865

  WITH FROZEN REACTIONS

 Cp, KJ/(KG)(K)   20.6259  20.6270  20.6271  20.6272  20.6273  20.6274  20.6275  20.6276
 CONDUCTIVITY     19.7219  19.3183  19.3472  19.3761  19.4050  19.4339  19.4628  19.4917
 PRANDTL NUMBER    0.6652   0.6658   0.6658   0.6658   0.6657   0.6657   0.6657   0.6657

 MASS FRACTIONS

 *H               0.99938  0.99936  0.99936  0.99936  0.99937  0.99937  0.99937  0.99937
 *H+              0.00031  0.00021  0.00021  0.00022  0.00023  0.00023  0.00024  0.00024
 *H2              0.00031  0.00043  0.00042  0.00042  0.00041  0.00040  0.00040  0.00039

  * THERMODYNAMIC PROPERTIES FITTED TO 20000.K

 NOTE. WEIGHT FRACTION OF FUEL IN TOTAL FUELS AND OF OXIDANT IN TOTAL OXIDANTS









               THERMODYNAMIC EQUILIBRIUM PROPERTIES AT ASSIGNED

                           TEMPERATURE AND PRESSURE

 CASE =                

             REACTANT                    WT FRACTION      ENERGY      TEMP
                                          (SEE NOTE)     KJ/KG-MOL      K  
 FUEL        H2                           1.0000000         0.000      0.000
 OXIDANT     H2                           1.0000000         0.000      0.000

 O/F=    1.00000  %FUEL= 50.000000  R,EQ.RATIO= 0.000000  PHI,EQ.RATIO=-1.000000

 THERMODYNAMIC PROPERTIES

 P, BAR           0.04900  0.04900  0.04900  0.04900  0.04900  0.04900  0.04900  0.04900
 T, K             5970.00  5980.00  5990.00  6000.00  6010.00  6020.00  6030.00  6040.00
 RHO, KG/CU M    9.9494-5 9.9326-5 9.9160-5 9.8993-5 9.8828-5 9.8663-5 9.8498-5 9.8334-5
 H, KJ/KG        333515.9 333732.2 333948.7 334165.4 334382.3 334599.3 334816.4 335033.8
 U, KJ/KG        284266.5 284399.9 284533.4 284667.1 284801.0 284935.1 285069.3 285203.6
 G, KJ/KG       -863748.3-865753.9-867760.0-869766.3-871773.1-873780.2-875787.6-877795.4
 S, KJ/(KG)(K)   200.5468 200.5830 200.6191 200.6553 200.6914 200.7275 200.7635 200.7995

 M, (1/n)           1.008    1.008    1.008    1.008    1.008    1.008    1.008    1.008
 (dLV/dLP)t      -1.00032 -1.00032 -1.00032 -1.00032 -1.00032 -1.00032 -1.00032 -1.00032
 (dLV/dLT)p        1.0054   1.0055   1.0055   1.0056   1.0056   1.0057   1.0057   1.0058
 Cp, KJ/(KG)(K)   21.6266  21.6425  21.6588  21.6755  21.6917  21.7083  21.7254  21.7429
 GAMMAs            1.6267   1.6261   1.6254   1.6248   1.6241   1.6235   1.6228   1.6222
 SON VEL,M/SEC     8950.7   8956.5   8962.2   8967.9   8973.7   8979.4   8985.1   8990.7

 TRANSPORT PROPERTIES (GASES ONLY)
   CONDUCTIVITY IN UNITS OF MILLIWATTS/(CM)(K)

 VISC,MILLIPOISE  0.62990  0.63080  0.63171  0.63261  0.63351  0.63441  0.63531  0.63621

  WITH EQUILIBRIUM REACTIONS

 Cp, KJ/(KG)(K)   21.6266  21.6425  21.6588  21.6755  21.6917  21.7083  21.7254  21.7429
 CONDUCTIVITY     19.8288  19.8582  19.8877  19.9173  19.9470  19.9769  20.0069  20.0370
 PRANDTL NUMBER    0.6870   0.6875   0.6880   0.6885   0.6889   0.6894   0.6899   0.6904

  WITH FROZEN REACTIONS

 Cp, KJ/(KG)(K)   20.6278  20.6279  20.6280  20.6282  20.6275  20.6268  20.6261  20.6256
 CONDUCTIVITY     19.5206  19.5496  19.5785  19.6074  19.6364  19.6653  19.6943  19.7232
 PRANDTL NUMBER    0.6656   0.6656   0.6656   0.6655   0.6655   0.6654   0.6654   0.6653

 MASS FRACTIONS

 *H               0.99937  0.99937  0.99937  0.99937  0.99937  0.99936  0.99936  0.99936
 *H+              0.00025  0.00026  0.00026  0.00027  0.00027  0.00028  0.00029  0.00029
 *H2              0.00038  0.00038  0.00037  0.00037  0.00036  0.00035  0.00035  0.00034

  * THERMODYNAMIC PROPERTIES FITTED TO 20000.K

 NOTE. WEIGHT FRACTION OF FUEL IN TOTAL FUELS AND OF OXIDANT IN TOTAL OXIDANTS









               THERMODYNAMIC EQUILIBRIUM PROPERTIES AT ASSIGNED

                           TEMPERATURE AND PRESSURE

 CASE =                

             REACTANT                    WT FRACTION      ENERGY      TEMP
                                          (SEE NOTE)     KJ/KG-MOL      K  
 FUEL        H2                           1.0000000         0.000      0.000
 OXIDANT     H2                           1.0000000         0.000      0.000

 O/F=    1.00000  %FUEL= 50.000000  R,EQ.RATIO= 0.000000  PHI,EQ.RATIO=-1.000000

 THERMODYNAMIC PROPERTIES

 P, BAR           0.05400  0.05400  0.05400  0.05400  0.05400  0.05400  0.05400  0.05400
 T, K             5900.00  5910.00  5920.00  5930.00  5940.00  5950.00  5960.00  5970.00
 RHO, KG/CU M    1.1096-4 1.1077-4 1.1058-4 1.1039-4 1.1021-4 1.1002-4 1.0983-4 1.0965-4
 H, KJ/KG        331981.4 332196.5 332411.8 332627.2 332842.7 333058.3 333274.1 333490.0
 U, KJ/KG        283314.0 283446.2 283578.6 283711.0 283843.6 283976.3 284109.2 284242.2
 G, KJ/KG       -844990.1-846985.2-848980.6-850976.4-852972.5-854969.0-856965.9-858963.1
 S, KJ/(KG)(K)   199.4867 199.5231 199.5595 199.5959 199.6322 199.6685 199.7047 199.7409

 M, (1/n)           1.008    1.008    1.008    1.008    1.008    1.008    1.008    1.008
 (dLV/dLP)t      -1.00034 -1.00033 -1.00033 -1.00033 -1.00033 -1.00033 -1.00033 -1.00033
 (dLV/dLT)p        1.0052   1.0052   1.0052   1.0053   1.0053   1.0053   1.0054   1.0054
 Cp, KJ/(KG)(K)   21.5069  21.5191  21.5316  21.5445  21.5578  21.5714  21.5854  21.5997
 GAMMAs            1.6318   1.6313   1.6307   1.6302   1.6297   1.6291   1.6285   1.6279
 SON VEL,M/SEC     8911.5   8917.7   8923.8   8929.9   8936.0   8942.0   8948.0   8953.9

 TRANSPORT PROPERTIES (GASES ONLY)
   CONDUCTIVITY IN UNITS OF MILLIWATTS/(CM)(K)

 VISC,MILLIPOISE  0.62366  0.62456  0.62547  0.62638  0.62728  0.62819  0.62909  0.63000

  WITH EQUILIBRIUM REACTIONS

 Cp, KJ/(KG)(K)   21.5069  21.5191  21.5316  21.5445  21.5578  21.5714  21.5854  21.5997
 CONDUCTIVITY     19.6406  19.6686  19.6968  19.7250  19.7535  19.7820  19.8107  19.8395
 PRANDTL NUMBER    0.6829   0.6833   0.6837   0.6842   0.6846   0.6850   0.6854   0.6859

  WITH FROZEN REACTIONS

 Cp, KJ/(KG)(K)   20.6268  20.6269  20.6270  20.6271  20.6272  20.6273  20.6274  20.6275
 CONDUCTIVITY     19.3193  19.3481  19.3770  19.4059  19.4349  19.4638  19.4927  19.5217
 PRANDTL NUMBER    0.6659   0.6658   0.6658   0.6658   0.6658   0.6657   0.6657   0.6657

 MASS FRACTIONS

 *H               0.99933  0.99933  0.99933  0.99933  0.99934  0.99934  0.99934  0.99934
 *H+              0.00020  0.00020  0.00021  0.00022  0.00022  0.00023  0.00023  0.00024
 *H2              0.00047  0.00046  0.00046  0.00045  0.00044  0.00044  0.00043  0.00042

  * THERMODYNAMIC PROPERTIES FITTED TO 20000.K

 NOTE. WEIGHT FRACTION OF FUEL IN TOTAL FUELS AND OF OXIDANT IN TOTAL OXIDANTS









               THERMODYNAMIC EQUILIBRIUM PROPERTIES AT ASSIGNED

                           TEMPERATURE AND PRESSURE

 CASE =                

             REACTANT                    WT FRACTION      ENERGY      TEMP
                                          (SEE NOTE)     KJ/KG-MOL      K  
 FUEL        H2                           1.0000000         0.000      0.000
 OXIDANT     H2                           1.0000000         0.000      0.000

 O/F=    1.00000  %FUEL= 50.000000  R,EQ.RATIO= 0.000000  PHI,EQ.RATIO=-1.000000

 THERMODYNAMIC PROPERTIES

 P, BAR           0.05400  0.05400  0.05400  0.05400  0.05400  0.05400  0.05400  0.06000
 T, K             5980.00  5990.00  6000.00  6010.00  6020.00  6030.00  6040.00  5900.00
 RHO, KG/CU M    1.0947-4 1.0928-4 1.0910-4 1.0892-4 1.0873-4 1.0855-4 1.0837-4 1.2329-4
 H, KJ/KG        333706.1 333922.3 334138.7 334355.2 334571.9 334788.7 335005.7 331954.7
 U, KJ/KG        284375.3 284508.6 284642.0 284775.6 284909.3 285043.1 285177.2 283289.1
 G, KJ/KG       -860960.7-862958.7-864957.0-866955.6-868954.7-870954.1-872953.8-839862.6
 S, KJ/(KG)(K)   199.7771 199.8132 199.8493 199.8853 199.9214 199.9573 199.9933 198.6131

 M, (1/n)           1.008    1.008    1.008    1.008    1.008    1.008    1.008    1.008
 (dLV/dLP)t      -1.00033 -1.00033 -1.00033 -1.00033 -1.00033 -1.00033 -1.00033 -1.00036
 (dLV/dLT)p        1.0055   1.0055   1.0056   1.0056   1.0057   1.0057   1.0058   1.0053
 Cp, KJ/(KG)(K)   21.6145  21.6296  21.6451  21.6602  21.6756  21.6915  21.7078  21.4899
 GAMMAs            1.6273   1.6267   1.6261   1.6255   1.6249   1.6243   1.6237   1.6327
 SON VEL,M/SEC     8959.8   8965.7   8971.5   8977.4   8983.2   8989.0   8994.7   8913.8

 TRANSPORT PROPERTIES (GASES ONLY)
   CONDUCTIVITY IN UNITS OF MILLIWATTS/(CM)(K)

 VISC,MILLIPOISE  0.63090  0.63181  0.63271  0.63362  0.63452  0.63542  0.63632  0.62375

  WITH EQUILIBRIUM REACTIONS

 Cp, KJ/(KG)(K)   21.6145  21.6296  21.6451  21.6602  21.6756  21.6915  21.7078  21.4899
 CONDUCTIVITY     19.8684  19.8975  19.9267  19.9560  19.9855  20.0151  20.0448  19.6581
 PRANDTL NUMBER    0.6863   0.6868   0.6873   0.6877   0.6882   0.6886   0.6891   0.6819

  WITH FROZEN REACTIONS

 Cp, KJ/(KG)(K)   20.6277  20.6278  20.6279  20.6272  20.6265  20.6259  20.6253  20.6266
 CONDUCTIVITY     19.5506  19.5795  19.6085  19.6375  19.6664  19.6954  19.7244  19.3203
 PRANDTL NUMBER    0.6657   0.6656   0.6656   0.6655   0.6655   0.6654   0.6654   0.6659

 MASS FRACTIONS

 *H               0.99934  0.99934  0.99934  0.99934  0.99934  0.99934  0.99934  0.99929
 *H+              0.00024  0.00025  0.00025  0.00026  0.00027  0.00027  0.00028  0.00019
 *H2              0.00042  0.00041  0.00040  0.00040  0.00039  0.00039  0.00038  0.00052

  * THERMODYNAMIC PROPERTIES FITTED TO 20000.K

 NOTE. WEIGHT FRACTION OF FUEL IN TOTAL FUELS AND OF OXIDANT IN TOTAL OXIDANTS









               THERMODYNAMIC EQUILIBRIUM PROPERTIES AT ASSIGNED

                           TEMPERATURE AND PRESSURE

 CASE =                

             REACTANT                    WT FRACTION      ENERGY      TEMP
                                          (SEE NOTE)     KJ/KG-MOL      K  
 FUEL        H2                           1.0000000         0.000      0.000
 OXIDANT     H2                           1.0000000         0.000      0.000

 O/F=    1.00000  %FUEL= 50.000000  R,EQ.RATIO= 0.000000  PHI,EQ.RATIO=-1.000000

 THERMODYNAMIC PROPERTIES

 P, BAR           0.06000  0.06000  0.06000  0.06000  0.06000  0.06000  0.06000  0.06000
 T, K             5910.00  5920.00  5930.00  5940.00  5950.00  5960.00  5970.00  5980.00
 RHO, KG/CU M    1.2308-4 1.2287-4 1.2266-4 1.2246-4 1.2225-4 1.2204-4 1.2184-4 1.2163-4
 H, KJ/KG        332169.7 332384.7 332599.9 332815.2 333030.6 333246.2 333461.9 333677.7
 U, KJ/KG        283421.1 283553.3 283685.5 283817.9 283950.4 284083.0 284215.7 284348.6
 G, KJ/KG       -841848.9-843835.6-845822.6-847810.0-849797.8-851785.9-853774.4-855763.3
 S, KJ/(KG)(K)   198.6495 198.6859 198.7222 198.7585 198.7947 198.8309 198.8670 198.9032

 M, (1/n)           1.008    1.008    1.008    1.008    1.008    1.008    1.008    1.008
 (dLV/dLP)t      -1.00036 -1.00035 -1.00035 -1.00035 -1.00035 -1.00035 -1.00035 -1.00035
 (dLV/dLT)p        1.0053   1.0053   1.0053   1.0054   1.0054   1.0054   1.0055   1.0055
 Cp, KJ/(KG)(K)   21.5009  21.5123  21.5240  21.5360  21.5485  21.5613  21.5744  21.5879
 GAMMAs            1.6322   1.6317   1.6313   1.6307   1.6302   1.6297   1.6292   1.6286
 SON VEL,M/SEC     8920.1   8926.4   8932.6   8938.8   8944.9   8951.0   8957.1   8963.1

 TRANSPORT PROPERTIES (GASES ONLY)
   CONDUCTIVITY IN UNITS OF MILLIWATTS/(CM)(K)

 VISC,MILLIPOISE  0.62466  0.62557  0.62648  0.62738  0.62829  0.62920  0.63010  0.63101

  WITH EQUILIBRIUM REACTIONS

 Cp, KJ/(KG)(K)   21.5009  21.5123  21.5240  21.5360  21.5485  21.5613  21.5744  21.5879
 CONDUCTIVITY     19.6855  19.7132  19.7409  19.7688  19.7969  19.8251  19.8534  19.8818
 PRANDTL NUMBER    0.6823   0.6827   0.6831   0.6835   0.6839   0.6843   0.6847   0.6852

  WITH FROZEN REACTIONS

 Cp, KJ/(KG)(K)   20.6267  20.6268  20.6269  20.6270  20.6271  20.6272  20.6273  20.6274
 CONDUCTIVITY     19.3492  19.3781  19.4070  19.4359  19.4649  19.4938  19.5228  19.5517
 PRANDTL NUMBER    0.6659   0.6659   0.6659   0.6658   0.6658   0.6658   0.6658   0.6657

 MASS FRACTIONS

 *H               0.99929  0.99929  0.99930  0.99930  0.99930  0.99930  0.99931  0.99931
 *H+              0.00019  0.00020  0.00020  0.00021  0.00021  0.00022  0.00022  0.00023
 *H2              0.00052  0.00051  0.00050  0.00049  0.00048  0.00048  0.00047  0.00046

  * THERMODYNAMIC PROPERTIES FITTED TO 20000.K

 NOTE. WEIGHT FRACTION OF FUEL IN TOTAL FUELS AND OF OXIDANT IN TOTAL OXIDANTS









               THERMODYNAMIC EQUILIBRIUM PROPERTIES AT ASSIGNED

                           TEMPERATURE AND PRESSURE

 CASE =                

             REACTANT                    WT FRACTION      ENERGY      TEMP
                                          (SEE NOTE)     KJ/KG-MOL      K  
 FUEL        H2                           1.0000000         0.000      0.000
 OXIDANT     H2                           1.0000000         0.000      0.000

 O/F=    1.00000  %FUEL= 50.000000  R,EQ.RATIO= 0.000000  PHI,EQ.RATIO=-1.000000

 THERMODYNAMIC PROPERTIES

 P, BAR           0.06000  0.06000  0.06000  0.06000  0.06000  0.06000  0.06700  0.06700
 T, K             5990.00  6000.00  6010.00  6020.00  6030.00  6040.00  5900.00  5910.00
 RHO, KG/CU M    1.2143-4 1.2122-4 1.2102-4 1.2082-4 1.2062-4 1.2042-4 1.3768-4 1.3745-4
 H, KJ/KG        333893.6 334109.7 334325.9 334542.3 334758.8 334975.5 331926.1 332140.9
 U, KJ/KG        284481.6 284614.7 284748.0 284881.4 285015.0 285148.7 283262.5 283394.3
 G, KJ/KG       -857752.5-859742.1-861732.0-863722.3-865712.9-867703.9-834492.6-836469.7
 S, KJ/(KG)(K)   198.9392 198.9753 199.0113 199.0473 199.0832 199.1191 197.6981 197.7345

 M, (1/n)           1.008    1.008    1.008    1.008    1.008    1.008    1.008    1.008
 (dLV/dLP)t      -1.00035 -1.00035 -1.00034 -1.00034 -1.00034 -1.00034 -1.00038 -1.00038
 (dLV/dLT)p        1.0055   1.0056   1.0056   1.0057   1.0057   1.0058   1.0054   1.0054
 Cp, KJ/(KG)(K)   21.6018  21.6161  21.6299  21.6441  21.6587  21.6737  21.4764  21.4862
 GAMMAs            1.6280   1.6274   1.6269   1.6263   1.6258   1.6252   1.6335   1.6331
 SON VEL,M/SEC     8969.1   8975.0   8981.0   8986.9   8992.8   8998.7   8915.9   8922.3

 TRANSPORT PROPERTIES (GASES ONLY)
   CONDUCTIVITY IN UNITS OF MILLIWATTS/(CM)(K)

 VISC,MILLIPOISE  0.63192  0.63282  0.63373  0.63463  0.63554  0.63644  0.62385  0.62476

  WITH EQUILIBRIUM REACTIONS

 Cp, KJ/(KG)(K)   21.6018  21.6161  21.6299  21.6441  21.6587  21.6737  21.4764  21.4862
 CONDUCTIVITY     19.9104  19.9391  19.9680  19.9970  20.0261  20.0553  19.6794  19.7063
 PRANDTL NUMBER    0.6856   0.6860   0.6865   0.6869   0.6873   0.6878   0.6808   0.6812

  WITH FROZEN REACTIONS

 Cp, KJ/(KG)(K)   20.6275  20.6276  20.6269  20.6262  20.6256  20.6250  20.6264  20.6264
 CONDUCTIVITY     19.5807  19.6097  19.6386  19.6676  19.6966  19.7256  19.3214  19.3503
 PRANDTL NUMBER    0.6657   0.6657   0.6656   0.6656   0.6655   0.6655   0.6660   0.6660

 MASS FRACTIONS

 *H               0.99931  0.99931  0.99931  0.99931  0.99931  0.99931  0.99923  0.99924
 *H+              0.00024  0.00024  0.00025  0.00025  0.00026  0.00027  0.00018  0.00018
 *H2              0.00046  0.00045  0.00044  0.00043  0.00043  0.00042  0.00059  0.00058

  * THERMODYNAMIC PROPERTIES FITTED TO 20000.K

 NOTE. WEIGHT FRACTION OF FUEL IN TOTAL FUELS AND OF OXIDANT IN TOTAL OXIDANTS









               THERMODYNAMIC EQUILIBRIUM PROPERTIES AT ASSIGNED

                           TEMPERATURE AND PRESSURE

 CASE =                

             REACTANT                    WT FRACTION      ENERGY      TEMP
                                          (SEE NOTE)     KJ/KG-MOL      K  
 FUEL        H2                           1.0000000         0.000      0.000
 OXIDANT     H2                           1.0000000         0.000      0.000

 O/F=    1.00000  %FUEL= 50.000000  R,EQ.RATIO= 0.000000  PHI,EQ.RATIO=-1.000000

 THERMODYNAMIC PROPERTIES

 P, BAR           0.06700  0.06700  0.06700  0.06700  0.06700  0.06700  0.06700  0.06700
 T, K             5920.00  5930.00  5940.00  5950.00  5960.00  5970.00  5980.00  5990.00
 RHO, KG/CU M    1.3721-4 1.3698-4 1.3675-4 1.3652-4 1.3629-4 1.3606-4 1.3583-4 1.3560-4
 H, KJ/KG        332355.8 332570.8 332786.0 333001.2 333216.5 333432.0 333647.6 333863.3
 U, KJ/KG        283526.3 283658.4 283790.6 283922.9 284055.3 284187.8 284320.5 284453.2
 G, KJ/KG       -838447.2-840425.1-842403.4-844382.0-846361.0-848340.3-850320.0-852300.1
 S, KJ/(KG)(K)   197.7708 197.8071 197.8433 197.8795 197.9157 197.9518 197.9879 198.0239

 M, (1/n)           1.008    1.008    1.008    1.008    1.008    1.008    1.008    1.008
 (dLV/dLP)t      -1.00038 -1.00038 -1.00037 -1.00037 -1.00037 -1.00037 -1.00037 -1.00037
 (dLV/dLT)p        1.0054   1.0054   1.0055   1.0055   1.0055   1.0055   1.0056   1.0056
 Cp, KJ/(KG)(K)   21.4963  21.5068  21.5176  21.5288  21.5404  21.5522  21.5645  21.5771
 GAMMAs            1.6327   1.6322   1.6317   1.6313   1.6308   1.6303   1.6298   1.6292
 SON VEL,M/SEC     8928.7   8935.1   8941.4   8947.6   8953.8   8960.0   8966.1   8972.2

 TRANSPORT PROPERTIES (GASES ONLY)
   CONDUCTIVITY IN UNITS OF MILLIWATTS/(CM)(K)

 VISC,MILLIPOISE  0.62567  0.62658  0.62749  0.62840  0.62931  0.63021  0.63112  0.63203

  WITH EQUILIBRIUM REACTIONS

 Cp, KJ/(KG)(K)   21.4963  21.5068  21.5176  21.5288  21.5404  21.5522  21.5645  21.5771
 CONDUCTIVITY     19.7333  19.7605  19.7878  19.8153  19.8429  19.8707  19.8986  19.9266
 PRANDTL NUMBER    0.6816   0.6820   0.6823   0.6827   0.6831   0.6835   0.6840   0.6844

  WITH FROZEN REACTIONS

 Cp, KJ/(KG)(K)   20.6265  20.6266  20.6267  20.6268  20.6269  20.6271  20.6272  20.6273
 CONDUCTIVITY     19.3792  19.4082  19.4371  19.4660  19.4950  19.5239  19.5529  19.5819
 PRANDTL NUMBER    0.6659   0.6659   0.6659   0.6659   0.6658   0.6658   0.6658   0.6658

 MASS FRACTIONS

 *H               0.99924  0.99925  0.99925  0.99926  0.99926  0.99926  0.99927  0.99927
 *H+              0.00019  0.00019  0.00020  0.00020  0.00021  0.00021  0.00022  0.00022
 *H2              0.00057  0.00056  0.00055  0.00054  0.00053  0.00052  0.00052  0.00051

  * THERMODYNAMIC PROPERTIES FITTED TO 20000.K

 NOTE. WEIGHT FRACTION OF FUEL IN TOTAL FUELS AND OF OXIDANT IN TOTAL OXIDANTS









               THERMODYNAMIC EQUILIBRIUM PROPERTIES AT ASSIGNED

                           TEMPERATURE AND PRESSURE

 CASE =                

             REACTANT                    WT FRACTION      ENERGY      TEMP
                                          (SEE NOTE)     KJ/KG-MOL      K  
 FUEL        H2                           1.0000000         0.000      0.000
 OXIDANT     H2                           1.0000000         0.000      0.000

 O/F=    1.00000  %FUEL= 50.000000  R,EQ.RATIO= 0.000000  PHI,EQ.RATIO=-1.000000

 THERMODYNAMIC PROPERTIES

 P, BAR           0.06700  0.06700  0.06700  0.06700  0.06700  0.07400  0.07400  0.07400
 T, K             6000.00  6010.00  6020.00  6030.00  6040.00  5900.00  5910.00  5920.00
 RHO, KG/CU M    1.3537-4 1.3515-4 1.3492-4 1.3470-4 1.3447-4 1.5207-4 1.5181-4 1.5155-4
 H, KJ/KG        334079.1 334295.1 334511.2 334727.4 334943.8 331899.6 332114.3 332329.1
 U, KJ/KG        284586.1 284719.1 284852.2 284985.5 285118.9 283237.9 283369.7 283501.5
 G, KJ/KG       -854280.5-856261.3-858242.4-860223.9-862205.8-829656.8-831625.7-833595.0
 S, KJ/(KG)(K)   198.0599 198.0959 198.1318 198.1677 198.2036 196.8740 196.9103 196.9467

 M, (1/n)           1.008    1.008    1.008    1.008    1.008    1.008    1.008    1.008
 (dLV/dLP)t      -1.00036 -1.00036 -1.00036 -1.00036 -1.00036 -1.00041 -1.00041 -1.00040
 (dLV/dLT)p        1.0056   1.0057   1.0057   1.0057   1.0058   1.0056   1.0056   1.0056
 Cp, KJ/(KG)(K)   21.5901  21.6026  21.6155  21.6288  21.6425  21.4682  21.4769  21.4859
 GAMMAs            1.6287   1.6282   1.6277   1.6271   1.6266   1.6342   1.6338   1.6334
 SON VEL,M/SEC     8978.3   8984.4   8990.5   8996.5   9002.5   8917.4   8924.0   8930.5

 TRANSPORT PROPERTIES (GASES ONLY)
   CONDUCTIVITY IN UNITS OF MILLIWATTS/(CM)(K)

 VISC,MILLIPOISE  0.63294  0.63384  0.63475  0.63566  0.63656  0.62395  0.62486  0.62577

  WITH EQUILIBRIUM REACTIONS

 Cp, KJ/(KG)(K)   21.5901  21.6026  21.6155  21.6288  21.6425  21.4682  21.4769  21.4859
 CONDUCTIVITY     19.9548  19.9831  20.0116  20.0402  20.0689  19.7015  19.7278  19.7543
 PRANDTL NUMBER    0.6848   0.6852   0.6856   0.6860   0.6865   0.6799   0.6803   0.6806

  WITH FROZEN REACTIONS

 Cp, KJ/(KG)(K)   20.6274  20.6267  20.6260  20.6253  20.6247  20.6262  20.6263  20.6264
 CONDUCTIVITY     19.6109  19.6399  19.6689  19.6979  19.7269  19.3225  19.3514  19.3803
 PRANDTL NUMBER    0.6657   0.6657   0.6656   0.6656   0.6655   0.6660   0.6660   0.6660

 MASS FRACTIONS

 *H               0.99927  0.99927  0.99927  0.99928  0.99928  0.99918  0.99919  0.99919
 *H+              0.00023  0.00023  0.00024  0.00025  0.00025  0.00017  0.00017  0.00018
 *H2              0.00050  0.00049  0.00049  0.00048  0.00047  0.00065  0.00064  0.00063

  * THERMODYNAMIC PROPERTIES FITTED TO 20000.K

 NOTE. WEIGHT FRACTION OF FUEL IN TOTAL FUELS AND OF OXIDANT IN TOTAL OXIDANTS









               THERMODYNAMIC EQUILIBRIUM PROPERTIES AT ASSIGNED

                           TEMPERATURE AND PRESSURE

 CASE =                

             REACTANT                    WT FRACTION      ENERGY      TEMP
                                          (SEE NOTE)     KJ/KG-MOL      K  
 FUEL        H2                           1.0000000         0.000      0.000
 OXIDANT     H2                           1.0000000         0.000      0.000

 O/F=    1.00000  %FUEL= 50.000000  R,EQ.RATIO= 0.000000  PHI,EQ.RATIO=-1.000000

 THERMODYNAMIC PROPERTIES

 P, BAR           0.07400  0.07400  0.07400  0.07400  0.07400  0.07400  0.07400  0.07400
 T, K             5930.00  5940.00  5950.00  5960.00  5970.00  5980.00  5990.00  6000.00
 RHO, KG/CU M    1.5130-4 1.5104-4 1.5079-4 1.5053-4 1.5028-4 1.5002-4 1.4977-4 1.4952-4
 H, KJ/KG        332544.0 332759.0 332974.1 333189.3 333404.7 333620.1 333835.6 334051.2
 U, KJ/KG        283633.5 283765.6 283897.7 284030.0 284162.3 284294.8 284427.4 284560.1
 G, KJ/KG       -835564.7-837534.7-839505.1-841475.8-843446.9-845418.3-847390.2-849362.3
 S, KJ/(KG)(K)   196.9829 197.0191 197.0553 197.0915 197.1276 197.1636 197.1996 197.2356

 M, (1/n)           1.008    1.008    1.008    1.008    1.008    1.008    1.008    1.008
 (dLV/dLP)t      -1.00040 -1.00040 -1.00040 -1.00039 -1.00039 -1.00039 -1.00039 -1.00039
 (dLV/dLT)p        1.0056   1.0056   1.0056   1.0056   1.0056   1.0057   1.0057   1.0057
 Cp, KJ/(KG)(K)   21.4952  21.5049  21.5150  21.5254  21.5362  21.5473  21.5587  21.5706
 GAMMAs            1.6329   1.6325   1.6321   1.6316   1.6312   1.6307   1.6302   1.6297
 SON VEL,M/SEC     8936.9   8943.3   8949.7   8956.0   8962.3   8968.5   8974.7   8980.9

 TRANSPORT PROPERTIES (GASES ONLY)
   CONDUCTIVITY IN UNITS OF MILLIWATTS/(CM)(K)

 VISC,MILLIPOISE  0.62668  0.62759  0.62849  0.62940  0.63031  0.63122  0.63213  0.63304

  WITH EQUILIBRIUM REACTIONS

 Cp, KJ/(KG)(K)   21.4952  21.5049  21.5150  21.5254  21.5362  21.5473  21.5587  21.5706
 CONDUCTIVITY     19.7809  19.8077  19.8346  19.8617  19.8889  19.9163  19.9438  19.9715
 PRANDTL NUMBER    0.6810   0.6814   0.6817   0.6821   0.6825   0.6829   0.6833   0.6837

  WITH FROZEN REACTIONS

 Cp, KJ/(KG)(K)   20.6265  20.6266  20.6267  20.6268  20.6269  20.6270  20.6271  20.6272
 CONDUCTIVITY     19.4092  19.4382  19.4671  19.4961  19.5250  19.5540  19.5830  19.6120
 PRANDTL NUMBER    0.6660   0.6660   0.6659   0.6659   0.6659   0.6659   0.6658   0.6658

 MASS FRACTIONS

 *H               0.99920  0.99920  0.99921  0.99921  0.99922  0.99922  0.99923  0.99923
 *H+              0.00018  0.00019  0.00019  0.00020  0.00020  0.00021  0.00021  0.00022
 *H2              0.00062  0.00061  0.00060  0.00059  0.00058  0.00057  0.00056  0.00055

  * THERMODYNAMIC PROPERTIES FITTED TO 20000.K

 NOTE. WEIGHT FRACTION OF FUEL IN TOTAL FUELS AND OF OXIDANT IN TOTAL OXIDANTS









               THERMODYNAMIC EQUILIBRIUM PROPERTIES AT ASSIGNED

                           TEMPERATURE AND PRESSURE

 CASE =                

             REACTANT                    WT FRACTION      ENERGY      TEMP
                                          (SEE NOTE)     KJ/KG-MOL      K  
 FUEL        H2                           1.0000000         0.000      0.000
 OXIDANT     H2                           1.0000000         0.000      0.000

 O/F=    1.00000  %FUEL= 50.000000  R,EQ.RATIO= 0.000000  PHI,EQ.RATIO=-1.000000

 THERMODYNAMIC PROPERTIES

 P, BAR           0.07400  0.07400  0.07400  0.07400  0.08250  0.08250  0.08250  0.08250
 T, K             6010.00  6020.00  6030.00  6040.00  5900.00  5910.00  5920.00  5930.00
 RHO, KG/CU M    1.4927-4 1.4902-4 1.4877-4 1.4853-4 1.6955-4 1.6926-4 1.6897-4 1.6868-4
 H, KJ/KG        334267.0 334482.9 334698.9 334915.0 331869.6 332084.3 332299.0 332513.9
 U, KJ/KG        284692.9 284825.8 284958.8 285092.0 283210.1 283341.8 283473.6 283605.5
 G, KJ/KG       -851334.9-853307.8-855281.0-857254.6-824365.8-826325.7-828286.0-830246.6
 S, KJ/(KG)(K)   197.2715 197.3074 197.3433 197.3791 195.9721 196.0085 196.0448 196.0810

 M, (1/n)           1.008    1.008    1.008    1.008    1.008    1.008    1.008    1.008
 (dLV/dLP)t      -1.00038 -1.00038 -1.00038 -1.00038 -1.00044 -1.00044 -1.00043 -1.00043
 (dLV/dLT)p        1.0057   1.0058   1.0058   1.0058   1.0058   1.0058   1.0058   1.0058
 Cp, KJ/(KG)(K)   21.5819  21.5936  21.6058  21.6183  21.4636  21.4710  21.4788  21.4869
 GAMMAs            1.6292   1.6288   1.6283   1.6277   1.6347   1.6343   1.6340   1.6336
 SON VEL,M/SEC     8987.1   8993.3   8999.4   9005.5   8918.7   8925.4   8932.0   8938.5

 TRANSPORT PROPERTIES (GASES ONLY)
   CONDUCTIVITY IN UNITS OF MILLIWATTS/(CM)(K)

 VISC,MILLIPOISE  0.63395  0.63486  0.63576  0.63667  0.62405  0.62496  0.62587  0.62678

  WITH EQUILIBRIUM REACTIONS

 Cp, KJ/(KG)(K)   21.5819  21.5936  21.6058  21.6183  21.4636  21.4710  21.4788  21.4869
 CONDUCTIVITY     19.9993  20.0272  20.0553  20.0836  19.7292  19.7548  19.7806  19.8066
 PRANDTL NUMBER    0.6841   0.6845   0.6849   0.6853   0.6789   0.6793   0.6796   0.6800

  WITH FROZEN REACTIONS

 Cp, KJ/(KG)(K)   20.6264  20.6257  20.6251  20.6245  20.6260  20.6261  20.6262  20.6263
 CONDUCTIVITY     19.6410  19.6700  19.6990  19.7281  19.3237  19.3526  19.3815  19.4104
 PRANDTL NUMBER    0.6658   0.6657   0.6657   0.6656   0.6661   0.6661   0.6661   0.6660

 MASS FRACTIONS

 *H               0.99923  0.99924  0.99924  0.99924  0.99912  0.99912  0.99913  0.99914
 *H+              0.00022  0.00023  0.00023  0.00024  0.00016  0.00017  0.00017  0.00017
 *H2              0.00054  0.00054  0.00053  0.00052  0.00072  0.00071  0.00070  0.00069

  * THERMODYNAMIC PROPERTIES FITTED TO 20000.K

 NOTE. WEIGHT FRACTION OF FUEL IN TOTAL FUELS AND OF OXIDANT IN TOTAL OXIDANTS









               THERMODYNAMIC EQUILIBRIUM PROPERTIES AT ASSIGNED

                           TEMPERATURE AND PRESSURE

 CASE =                

             REACTANT                    WT FRACTION      ENERGY      TEMP
                                          (SEE NOTE)     KJ/KG-MOL      K  
 FUEL        H2                           1.0000000         0.000      0.000
 OXIDANT     H2                           1.0000000         0.000      0.000

 O/F=    1.00000  %FUEL= 50.000000  R,EQ.RATIO= 0.000000  PHI,EQ.RATIO=-1.000000

 THERMODYNAMIC PROPERTIES

 P, BAR           0.08250  0.08250  0.08250  0.08250  0.08250  0.08250  0.08250  0.08250
 T, K             5940.00  5950.00  5960.00  5970.00  5980.00  5990.00  6000.00  6010.00
 RHO, KG/CU M    1.6840-4 1.6811-4 1.6783-4 1.6755-4 1.6726-4 1.6698-4 1.6670-4 1.6642-4
 H, KJ/KG        332728.8 332943.8 333158.8 333374.0 333589.3 333804.7 334020.2 334235.8
 U, KJ/KG        283737.5 283869.5 284001.7 284133.9 284266.2 284398.6 284531.1 284663.8
 G, KJ/KG       -832207.6-834168.9-836130.7-838092.7-840055.2-842018.0-843981.1-845944.6
 S, KJ/(KG)(K)   196.1172 196.1534 196.1895 196.2256 196.2616 196.2976 196.3335 196.3694

 M, (1/n)           1.008    1.008    1.008    1.008    1.008    1.008    1.008    1.008
 (dLV/dLP)t      -1.00043 -1.00042 -1.00042 -1.00042 -1.00042 -1.00041 -1.00041 -1.00041
 (dLV/dLT)p        1.0058   1.0058   1.0058   1.0058   1.0058   1.0058   1.0058   1.0059
 Cp, KJ/(KG)(K)   21.4954  21.5042  21.5134  21.5229  21.5328  21.5430  21.5536  21.5637
 GAMMAs            1.6332   1.6328   1.6324   1.6320   1.6316   1.6311   1.6307   1.6302
 SON VEL,M/SEC     8945.0   8951.5   8958.0   8964.4   8970.7   8977.1   8983.3   8989.7

 TRANSPORT PROPERTIES (GASES ONLY)
   CONDUCTIVITY IN UNITS OF MILLIWATTS/(CM)(K)

 VISC,MILLIPOISE  0.62769  0.62860  0.62951  0.63042  0.63133  0.63224  0.63315  0.63406

  WITH EQUILIBRIUM REACTIONS

 Cp, KJ/(KG)(K)   21.4954  21.5042  21.5134  21.5229  21.5328  21.5430  21.5536  21.5637
 CONDUCTIVITY     19.8327  19.8590  19.8854  19.9120  19.9388  19.9657  19.9927  20.0200
 PRANDTL NUMBER    0.6803   0.6807   0.6811   0.6814   0.6818   0.6822   0.6826   0.6830

  WITH FROZEN REACTIONS

 Cp, KJ/(KG)(K)   20.6264  20.6265  20.6265  20.6266  20.6267  20.6268  20.6269  20.6262
 CONDUCTIVITY     19.4394  19.4683  19.4973  19.5263  19.5553  19.5843  19.6133  19.6423
 PRANDTL NUMBER    0.6660   0.6660   0.6660   0.6659   0.6659   0.6659   0.6659   0.6658

 MASS FRACTIONS

 *H               0.99914  0.99915  0.99916  0.99916  0.99917  0.99917  0.99918  0.99918
 *H+              0.00018  0.00018  0.00019  0.00019  0.00020  0.00020  0.00021  0.00021
 *H2              0.00068  0.00067  0.00066  0.00065  0.00064  0.00063  0.00062  0.00061

  * THERMODYNAMIC PROPERTIES FITTED TO 20000.K

 NOTE. WEIGHT FRACTION OF FUEL IN TOTAL FUELS AND OF OXIDANT IN TOTAL OXIDANTS









               THERMODYNAMIC EQUILIBRIUM PROPERTIES AT ASSIGNED

                           TEMPERATURE AND PRESSURE

 CASE =                

             REACTANT                    WT FRACTION      ENERGY      TEMP
                                          (SEE NOTE)     KJ/KG-MOL      K  
 FUEL        H2                           1.0000000         0.000      0.000
 OXIDANT     H2                           1.0000000         0.000      0.000

 O/F=    1.00000  %FUEL= 50.000000  R,EQ.RATIO= 0.000000  PHI,EQ.RATIO=-1.000000

 THERMODYNAMIC PROPERTIES

 P, BAR           0.08250  0.08250  0.08250  0.09100  0.09100  0.09100  0.09100  0.09100
 T, K             6020.00  6030.00  6040.00  5900.00  5910.00  5920.00  5930.00  5940.00
 RHO, KG/CU M    1.6615-4 1.6587-4 1.6559-4 1.8702-4 1.8670-4 1.8639-4 1.8607-4 1.8576-4
 H, KJ/KG        334451.4 334667.2 334883.1 331841.5 332056.1 332270.9 332485.7 332700.5
 U, KJ/KG        284796.5 284929.3 285062.2 283184.2 283315.9 283447.6 283579.5 283711.4
 G, KJ/KG       -847908.5-849872.7-851837.3-819594.3-821546.1-823498.2-825450.7-827403.5
 S, KJ/(KG)(K)   196.4053 196.4411 196.4769 195.1586 195.1950 195.2313 195.2675 195.3037

 M, (1/n)           1.008    1.008    1.008    1.008    1.008    1.008    1.008    1.008
 (dLV/dLP)t      -1.00041 -1.00040 -1.00040 -1.00047 -1.00047 -1.00047 -1.00046 -1.00046
 (dLV/dLT)p        1.0059   1.0059   1.0059   1.0060   1.0060   1.0060   1.0060   1.0060
 Cp, KJ/(KG)(K)   21.5741  21.5850  21.5962  21.4636  21.4699  21.4766  21.4836  21.4909
 GAMMAs            1.6298   1.6294   1.6289   1.6351   1.6347   1.6344   1.6341   1.6337
 SON VEL,M/SEC     8996.0   9002.3   9008.5   8919.5   8926.2   8932.9   8939.6   8946.3

 TRANSPORT PROPERTIES (GASES ONLY)
   CONDUCTIVITY IN UNITS OF MILLIWATTS/(CM)(K)

 VISC,MILLIPOISE  0.63497  0.63588  0.63679  0.62415  0.62506  0.62597  0.62688  0.62779

  WITH EQUILIBRIUM REACTIONS

 Cp, KJ/(KG)(K)   21.5741  21.5850  21.5962  21.4636  21.4699  21.4766  21.4836  21.4909
 CONDUCTIVITY     20.0473  20.0748  20.1025  19.7576  19.7825  19.8077  19.8330  19.8585
 PRANDTL NUMBER    0.6833   0.6837   0.6841   0.6780   0.6784   0.6787   0.6791   0.6794

  WITH FROZEN REACTIONS

 Cp, KJ/(KG)(K)   20.6255  20.6248  20.6242  20.6259  20.6259  20.6260  20.6261  20.6262
 CONDUCTIVITY     19.6713  19.7003  19.7294  19.3248  19.3537  19.3827  19.4116  19.4405
 PRANDTL NUMBER    0.6658   0.6657   0.6657   0.6662   0.6661   0.6661   0.6661   0.6661

 MASS FRACTIONS

 *H               0.99919  0.99919  0.99919  0.99905  0.99906  0.99907  0.99908  0.99908
 *H+              0.00022  0.00022  0.00023  0.00015  0.00016  0.00016  0.00017  0.00017
 *H2              0.00060  0.00059  0.00058  0.00080  0.00078  0.00077  0.00076  0.00075

  * THERMODYNAMIC PROPERTIES FITTED TO 20000.K

 NOTE. WEIGHT FRACTION OF FUEL IN TOTAL FUELS AND OF OXIDANT IN TOTAL OXIDANTS









               THERMODYNAMIC EQUILIBRIUM PROPERTIES AT ASSIGNED

                           TEMPERATURE AND PRESSURE

 CASE =                

             REACTANT                    WT FRACTION      ENERGY      TEMP
                                          (SEE NOTE)     KJ/KG-MOL      K  
 FUEL        H2                           1.0000000         0.000      0.000
 OXIDANT     H2                           1.0000000         0.000      0.000

 O/F=    1.00000  %FUEL= 50.000000  R,EQ.RATIO= 0.000000  PHI,EQ.RATIO=-1.000000

 THERMODYNAMIC PROPERTIES

 P, BAR           0.09100  0.09100  0.09100  0.09100  0.09100  0.09100  0.09100  0.09100
 T, K             5950.00  5960.00  5970.00  5980.00  5990.00  6000.00  6010.00  6020.00
 RHO, KG/CU M    1.8544-4 1.8513-4 1.8482-4 1.8451-4 1.8420-4 1.8389-4 1.8358-4 1.8327-4
 H, KJ/KG        332915.5 333130.5 333345.6 333560.8 333776.1 333991.5 334206.9 334422.5
 U, KJ/KG        283843.3 283975.4 284107.5 284239.8 284372.1 284504.5 284637.0 284769.6
 G, KJ/KG       -829356.8-831310.3-833264.3-835218.6-837173.2-839128.3-841083.6-843039.4
 S, KJ/(KG)(K)   195.3399 195.3760 195.4120 195.4481 195.4840 195.5200 195.5558 195.5917

 M, (1/n)           1.008    1.008    1.008    1.008    1.008    1.008    1.008    1.008
 (dLV/dLP)t      -1.00045 -1.00045 -1.00045 -1.00044 -1.00044 -1.00044 -1.00044 -1.00043
 (dLV/dLT)p        1.0060   1.0060   1.0060   1.0060   1.0060   1.0060   1.0060   1.0060
 Cp, KJ/(KG)(K)   21.4986  21.5066  21.5150  21.5238  21.5328  21.5423  21.5512  21.5605
 GAMMAs            1.6334   1.6330   1.6326   1.6322   1.6318   1.6314   1.6310   1.6306
 SON VEL,M/SEC     8952.8   8959.4   8965.9   8972.4   8978.8   8985.2   8991.6   8998.1

 TRANSPORT PROPERTIES (GASES ONLY)
   CONDUCTIVITY IN UNITS OF MILLIWATTS/(CM)(K)

 VISC,MILLIPOISE  0.62870  0.62961  0.63052  0.63143  0.63235  0.63326  0.63417  0.63508

  WITH EQUILIBRIUM REACTIONS

 Cp, KJ/(KG)(K)   21.4986  21.5066  21.5150  21.5238  21.5328  21.5423  21.5512  21.5605
 CONDUCTIVITY     19.8841  19.9099  19.9359  19.9621  19.9884  20.0149  20.0415  20.0683
 PRANDTL NUMBER    0.6797   0.6801   0.6805   0.6808   0.6812   0.6816   0.6819   0.6823

  WITH FROZEN REACTIONS

 Cp, KJ/(KG)(K)   20.6263  20.6264  20.6265  20.6266  20.6267  20.6268  20.6260  20.6253
 CONDUCTIVITY     19.4695  19.4985  19.5274  19.5564  19.5854  19.6144  19.6435  19.6725
 PRANDTL NUMBER    0.6661   0.6660   0.6660   0.6660   0.6660   0.6659   0.6659   0.6658

 MASS FRACTIONS

 *H               0.99909  0.99910  0.99910  0.99911  0.99912  0.99912  0.99913  0.99913
 *H+              0.00017  0.00018  0.00018  0.00019  0.00019  0.00020  0.00020  0.00021
 *H2              0.00073  0.00072  0.00071  0.00070  0.00069  0.00068  0.00067  0.00066

  * THERMODYNAMIC PROPERTIES FITTED TO 20000.K

 NOTE. WEIGHT FRACTION OF FUEL IN TOTAL FUELS AND OF OXIDANT IN TOTAL OXIDANTS









               THERMODYNAMIC EQUILIBRIUM PROPERTIES AT ASSIGNED

                           TEMPERATURE AND PRESSURE

 CASE =                

             REACTANT                    WT FRACTION      ENERGY      TEMP
                                          (SEE NOTE)     KJ/KG-MOL      K  
 FUEL        H2                           1.0000000         0.000      0.000
 OXIDANT     H2                           1.0000000         0.000      0.000

 O/F=    1.00000  %FUEL= 50.000000  R,EQ.RATIO= 0.000000  PHI,EQ.RATIO=-1.000000

 THERMODYNAMIC PROPERTIES

 P, BAR           0.09100  0.09100  0.10000  0.10000  0.10000  0.10000  0.10000  0.10000
 T, K             6030.00  6040.00  5900.00  5910.00  5920.00  5930.00  5940.00  5950.00
 RHO, KG/CU M    1.8297-4 1.8266-4 2.0553-4 2.0518-4 2.0483-4 2.0448-4 2.0414-4 2.0379-4
 H, KJ/KG        334638.1 334853.9 331813.2 332027.9 332242.7 332457.5 332672.4 332887.3
 U, KJ/KG        284902.2 285035.0 283158.2 283289.9 283421.7 283553.5 283685.4 283817.3
 G, KJ/KG       -844995.5-846951.9-815005.5-816949.4-818893.8-820838.4-822783.5-824728.8
 S, KJ/(KG)(K)   195.6275 195.6632 194.3761 194.4124 194.4487 194.4850 194.5212 194.5573

 M, (1/n)           1.008    1.008    1.008    1.008    1.008    1.008    1.008    1.008
 (dLV/dLP)t      -1.00043 -1.00043 -1.00051 -1.00051 -1.00050 -1.00050 -1.00049 -1.00049
 (dLV/dLT)p        1.0060   1.0061   1.0063   1.0063   1.0062   1.0062   1.0062   1.0062
 Cp, KJ/(KG)(K)   21.5702  21.5803  21.4675  21.4727  21.4782  21.4841  21.4904  21.4970
 GAMMAs            1.6302   1.6298   1.6353   1.6350   1.6347   1.6344   1.6341   1.6338
 SON VEL,M/SEC     9004.4   9010.8   8919.9   8926.7   8933.6   8940.3   8947.1   8953.8

 TRANSPORT PROPERTIES (GASES ONLY)
   CONDUCTIVITY IN UNITS OF MILLIWATTS/(CM)(K)

 VISC,MILLIPOISE  0.63599  0.63690  0.62424  0.62515  0.62606  0.62697  0.62789  0.62880

  WITH EQUILIBRIUM REACTIONS

 Cp, KJ/(KG)(K)   21.5702  21.5803  21.4675  21.4727  21.4782  21.4841  21.4904  21.4970
 CONDUCTIVITY     20.0953  20.1224  19.7883  19.8125  19.8370  19.8616  19.8864  19.9114
 PRANDTL NUMBER    0.6827   0.6830   0.6772   0.6775   0.6779   0.6782   0.6785   0.6789

  WITH FROZEN REACTIONS

 Cp, KJ/(KG)(K)   20.6246  20.6240  20.6257  20.6258  20.6259  20.6260  20.6260  20.6261
 CONDUCTIVITY     19.7015  19.7306  19.3260  19.3549  19.3838  19.4128  19.4417  19.4707
 PRANDTL NUMBER    0.6658   0.6657   0.6662   0.6662   0.6662   0.6662   0.6661   0.6661

 MASS FRACTIONS

 *H               0.99914  0.99914  0.99898  0.99899  0.99900  0.99901  0.99902  0.99903
 *H+              0.00021  0.00022  0.00015  0.00015  0.00015  0.00016  0.00016  0.00017
 *H2              0.00065  0.00064  0.00087  0.00086  0.00085  0.00083  0.00082  0.00081

  * THERMODYNAMIC PROPERTIES FITTED TO 20000.K

 NOTE. WEIGHT FRACTION OF FUEL IN TOTAL FUELS AND OF OXIDANT IN TOTAL OXIDANTS









               THERMODYNAMIC EQUILIBRIUM PROPERTIES AT ASSIGNED

                           TEMPERATURE AND PRESSURE

 CASE =                

             REACTANT                    WT FRACTION      ENERGY      TEMP
                                          (SEE NOTE)     KJ/KG-MOL      K  
 FUEL        H2                           1.0000000         0.000      0.000
 OXIDANT     H2                           1.0000000         0.000      0.000

 O/F=    1.00000  %FUEL= 50.000000  R,EQ.RATIO= 0.000000  PHI,EQ.RATIO=-1.000000

 THERMODYNAMIC PROPERTIES

 P, BAR           0.10000  0.10000  0.10000  0.10000  0.10000  0.10000  0.10000  0.10000
 T, K             5960.00  5970.00  5980.00  5990.00  6000.00  6010.00  6020.00  6030.00
 RHO, KG/CU M    2.0345-4 2.0310-4 2.0276-4 2.0242-4 2.0208-4 2.0174-4 2.0141-4 2.0107-4
 H, KJ/KG        333102.3 333317.4 333532.5 333747.8 333963.1 334178.5 334393.9 334609.5
 U, KJ/KG        283949.4 284081.5 284213.6 284345.9 284478.2 284610.6 284743.1 284875.7
 G, KJ/KG       -826674.6-828620.7-830567.2-832514.0-834461.2-836408.8-838356.7-840304.9
 S, KJ/(KG)(K)   194.5934 194.6295 194.6655 194.7015 194.7374 194.7732 194.8091 194.8448

 M, (1/n)           1.008    1.008    1.008    1.008    1.008    1.008    1.008    1.008
 (dLV/dLP)t      -1.00048 -1.00048 -1.00047 -1.00047 -1.00047 -1.00046 -1.00046 -1.00046
 (dLV/dLT)p        1.0062   1.0062   1.0062   1.0062   1.0062   1.0062   1.0062   1.0062
 Cp, KJ/(KG)(K)   21.5039  21.5112  21.5188  21.5268  21.5351  21.5430  21.5512  21.5598
 GAMMAs            1.6335   1.6331   1.6328   1.6324   1.6320   1.6317   1.6313   1.6309
 SON VEL,M/SEC     8960.4   8967.0   8973.6   8980.1   8986.6   8993.2   8999.7   9006.2

 TRANSPORT PROPERTIES (GASES ONLY)
   CONDUCTIVITY IN UNITS OF MILLIWATTS/(CM)(K)

 VISC,MILLIPOISE  0.62971  0.63062  0.63153  0.63244  0.63336  0.63427  0.63518  0.63609

  WITH EQUILIBRIUM REACTIONS

 Cp, KJ/(KG)(K)   21.5039  21.5112  21.5188  21.5268  21.5351  21.5430  21.5512  21.5598
 CONDUCTIVITY     19.9366  19.9620  19.9875  20.0132  20.0391  20.0651  20.0913  20.1177
 PRANDTL NUMBER    0.6792   0.6796   0.6799   0.6803   0.6806   0.6810   0.6813   0.6817

  WITH FROZEN REACTIONS

 Cp, KJ/(KG)(K)   20.6262  20.6263  20.6264  20.6265  20.6266  20.6258  20.6251  20.6244
 CONDUCTIVITY     19.4996  19.5286  19.5576  19.5866  19.6156  19.6446  19.6737  19.7027
 PRANDTL NUMBER    0.6661   0.6661   0.6660   0.6660   0.6660   0.6659   0.6659   0.6658

 MASS FRACTIONS

 *H               0.99903  0.99904  0.99905  0.99906  0.99907  0.99907  0.99908  0.99909
 *H+              0.00017  0.00017  0.00018  0.00018  0.00019  0.00019  0.00020  0.00020
 *H2              0.00079  0.00078  0.00077  0.00076  0.00075  0.00074  0.00072  0.00071

  * THERMODYNAMIC PROPERTIES FITTED TO 20000.K

 NOTE. WEIGHT FRACTION OF FUEL IN TOTAL FUELS AND OF OXIDANT IN TOTAL OXIDANTS









               THERMODYNAMIC EQUILIBRIUM PROPERTIES AT ASSIGNED

                           TEMPERATURE AND PRESSURE

 CASE =                

             REACTANT                    WT FRACTION      ENERGY      TEMP
                                          (SEE NOTE)     KJ/KG-MOL      K  
 FUEL        H2                           1.0000000         0.000      0.000
 OXIDANT     H2                           1.0000000         0.000      0.000

 O/F=    1.00000  %FUEL= 50.000000  R,EQ.RATIO= 0.000000  PHI,EQ.RATIO=-1.000000

 THERMODYNAMIC PROPERTIES

 P, BAR           0.10000
 T, K             6040.00
 RHO, KG/CU M    2.0074-4
 H, KJ/KG        334825.1
 U, KJ/KG        285008.3
 G, KJ/KG       -842253.6
 S, KJ/(KG)(K)   194.8806

 M, (1/n)           1.008
 (dLV/dLP)t      -1.00045
 (dLV/dLT)p        1.0062
 Cp, KJ/(KG)(K)   21.5688
 GAMMAs            1.6305
 SON VEL,M/SEC     9012.6

 TRANSPORT PROPERTIES (GASES ONLY)
   CONDUCTIVITY IN UNITS OF MILLIWATTS/(CM)(K)

 VISC,MILLIPOISE  0.63700

  WITH EQUILIBRIUM REACTIONS

 Cp, KJ/(KG)(K)   21.5688
 CONDUCTIVITY     20.1442
 PRANDTL NUMBER    0.6820

  WITH FROZEN REACTIONS

 Cp, KJ/(KG)(K)   20.6238
 CONDUCTIVITY     19.7318
 PRANDTL NUMBER    0.6658

 MASS FRACTIONS

 *H               0.99909
 *H+              0.00021
 *H2              0.00070

  * THERMODYNAMIC PROPERTIES FITTED TO 20000.K

 NOTE. WEIGHT FRACTION OF FUEL IN TOTAL FUELS AND OF OXIDANT IN TOTAL OXIDANTS



  
