
 *******************************************************************************

         NASA-GLENN CHEMICAL EQUILIBRIUM PROGRAM CEA2, MAY 21, 2004
                   BY  BONNIE MCBRIDE AND SANFORD GORDON
      REFS: NASA RP-1311, PART I, 1994 AND NASA RP-1311, PART II, 1996

 *******************************************************************************



  prob tp ions
  p,bar= 60.0,67.0,74.0,82.5,91.0,100.0,110.0,120.0,132.0,148.0,165.0,180.0,200.0
 ,225.0,250.0
  t,k= 1700,1710,1720,1730,1740,1750,1760,1770,1780,1790,1800,1810,1820,1830,1840
  
  
  reac
  fuel H2                wt%=100.0000
  oxid H2                wt%=100.0000
  
  output short
  
  output massf
  
  output siunits
  
  output transport
  
 end





               THERMODYNAMIC EQUILIBRIUM PROPERTIES AT ASSIGNED

                           TEMPERATURE AND PRESSURE

 CASE =                

             REACTANT                    WT FRACTION      ENERGY      TEMP
                                          (SEE NOTE)     KJ/KG-MOL      K  
 FUEL        H2                           1.0000000         0.000      0.000
 OXIDANT     H2                           1.0000000         0.000      0.000

 O/F=    1.00000  %FUEL= 50.000000  R,EQ.RATIO= 0.000000  PHI,EQ.RATIO=-1.000000

 THERMODYNAMIC PROPERTIES

 P, BAR            60.000   60.000   60.000   60.000   60.000   60.000   60.000   60.000
 T, K             1700.00  1710.00  1720.00  1730.00  1740.00  1750.00  1760.00  1770.00
 RHO, KG/CU M    8.5571-1 8.5071-1 8.4576-1 8.4087-1 8.3604-1 8.3126-1 8.2653-1 8.2186-1
 H, KJ/KG         21250.0  21414.8  21579.7  21744.8  21910.2  22075.8  22241.6  22407.7
 U, KJ/KG         14238.3  14361.8  14485.5  14609.4  14733.5  14857.8  14982.4  15107.2
 G, KJ/KG       -104318.5-105057.5-105797.5-106538.6-107280.6-108023.5-108767.4-109512.2
 S, KJ/(KG)(K)    73.8639  73.9604  74.0565  74.1523  74.2476  74.3425  74.4369  74.5310

 M, (1/n)           2.016    2.016    2.016    2.016    2.016    2.016    2.016    2.016
 (dLV/dLP)t      -1.00000 -1.00000 -1.00000 -1.00000 -1.00000 -1.00000 -1.00000 -1.00001
 (dLV/dLT)p        1.0002   1.0002   1.0002   1.0002   1.0002   1.0002   1.0003   1.0003
 Cp, KJ/(KG)(K)   16.4615  16.4832  16.5049  16.5267  16.5485  16.5704  16.5924  16.6144
 GAMMAs            1.3345   1.3339   1.3333   1.3327   1.3322   1.3316   1.3310   1.3305
 SON VEL,M/SEC     3058.9   3067.2   3075.5   3083.8   3092.0   3100.2   3108.4   3116.6

 TRANSPORT PROPERTIES (GASES ONLY)
   CONDUCTIVITY IN UNITS OF MILLIWATTS/(CM)(K)

 VISC,MILLIPOISE  0.29794  0.29919  0.30044  0.30168  0.30293  0.30418  0.30542  0.30667

  WITH EQUILIBRIUM REACTIONS

 Cp, KJ/(KG)(K)   16.4615  16.4832  16.5049  16.5267  16.5485  16.5704  16.5924  16.6144
 CONDUCTIVITY      6.9880   7.0263   7.0649   7.1037   7.1427   7.1818   7.2210   7.2604
 PRANDTL NUMBER    0.7018   0.7019   0.7019   0.7019   0.7018   0.7018   0.7018   0.7018

  WITH FROZEN REACTIONS

 Cp, KJ/(KG)(K)   16.4415  16.4614  16.4813  16.5012  16.5209  16.5405  16.5601  16.5796
 CONDUCTIVITY      6.9720   7.0090   7.0460   7.0831   7.1202   7.1574   7.1946   7.2318
 PRANDTL NUMBER    0.7026   0.7027   0.7028   0.7028   0.7029   0.7029   0.7030   0.7031

 MASS FRACTIONS

 *H               0.00001  0.00001  0.00001  0.00001  0.00001  0.00002  0.00002  0.00002
 *H2              0.99999  0.99999  0.99999  0.99999  0.99999  0.99999  0.99998  0.99998

  * THERMODYNAMIC PROPERTIES FITTED TO 20000.K

 NOTE. WEIGHT FRACTION OF FUEL IN TOTAL FUELS AND OF OXIDANT IN TOTAL OXIDANTS









               THERMODYNAMIC EQUILIBRIUM PROPERTIES AT ASSIGNED

                           TEMPERATURE AND PRESSURE

 CASE =                

             REACTANT                    WT FRACTION      ENERGY      TEMP
                                          (SEE NOTE)     KJ/KG-MOL      K  
 FUEL        H2                           1.0000000         0.000      0.000
 OXIDANT     H2                           1.0000000         0.000      0.000

 O/F=    1.00000  %FUEL= 50.000000  R,EQ.RATIO= 0.000000  PHI,EQ.RATIO=-1.000000

 THERMODYNAMIC PROPERTIES

 P, BAR            60.000   60.000   60.000   60.000   60.000   60.000   60.000   67.000
 T, K             1780.00  1790.00  1800.00  1810.00  1820.00  1830.00  1840.00  1700.00
 RHO, KG/CU M    8.1725-1 8.1268-1 8.0816-1 8.0370-1 7.9928-1 7.9491-1 7.9058-1 9.5554-1
 H, KJ/KG         22573.9  22740.4  22907.1  23074.0  23241.2  23408.5  23576.1  21249.9
 U, KJ/KG         15232.2  15357.4  15482.8  15608.5  15734.4  15860.5  15986.8  14238.2
 G, KJ/KG       -110258.0-111004.7-111752.4-112500.9-113250.4-114000.9-114752.2-103544.7
 S, KJ/(KG)(K)    74.6247  74.7179  74.8108  74.9033  74.9954  75.0871  75.1784  73.4086

 M, (1/n)           2.016    2.016    2.016    2.016    2.016    2.016    2.016    2.016
 (dLV/dLP)t      -1.00001 -1.00001 -1.00001 -1.00001 -1.00001 -1.00001 -1.00002 -1.00000
 (dLV/dLT)p        1.0003   1.0003   1.0003   1.0004   1.0004   1.0004   1.0005   1.0001
 Cp, KJ/(KG)(K)   16.6366  16.6588  16.6811  16.7035  16.7260  16.7487  16.7715  16.4604
 GAMMAs            1.3299   1.3293   1.3288   1.3282   1.3277   1.3271   1.3265   1.3345
 SON VEL,M/SEC     3124.7   3132.8   3140.9   3148.9   3157.0   3165.0   3172.9   3058.9

 TRANSPORT PROPERTIES (GASES ONLY)
   CONDUCTIVITY IN UNITS OF MILLIWATTS/(CM)(K)

 VISC,MILLIPOISE  0.30791  0.30915  0.31039  0.31164  0.31288  0.31412  0.31536  0.29794

  WITH EQUILIBRIUM REACTIONS

 Cp, KJ/(KG)(K)   16.6366  16.6588  16.6811  16.7035  16.7260  16.7487  16.7715  16.4604
 CONDUCTIVITY      7.3001   7.3399   7.3798   7.4200   7.4605   7.5011   7.5420   6.9869
 PRANDTL NUMBER    0.7017   0.7017   0.7016   0.7015   0.7015   0.7014   0.7013   0.7019

  WITH FROZEN REACTIONS

 Cp, KJ/(KG)(K)   16.5990  16.6183  16.6375  16.6566  16.6756  16.6946  16.7134  16.4415
 CONDUCTIVITY      7.2690   7.3062   7.3435   7.3808   7.4180   7.4554   7.4927   6.9719
 PRANDTL NUMBER    0.7031   0.7032   0.7032   0.7033   0.7033   0.7034   0.7034   0.7026

 MASS FRACTIONS

 *H               0.00002  0.00002  0.00002  0.00003  0.00003  0.00003  0.00003  0.00001
 *H2              0.99998  0.99998  0.99998  0.99997  0.99997  0.99997  0.99997  0.99999

  * THERMODYNAMIC PROPERTIES FITTED TO 20000.K

 NOTE. WEIGHT FRACTION OF FUEL IN TOTAL FUELS AND OF OXIDANT IN TOTAL OXIDANTS









               THERMODYNAMIC EQUILIBRIUM PROPERTIES AT ASSIGNED

                           TEMPERATURE AND PRESSURE

 CASE =                

             REACTANT                    WT FRACTION      ENERGY      TEMP
                                          (SEE NOTE)     KJ/KG-MOL      K  
 FUEL        H2                           1.0000000         0.000      0.000
 OXIDANT     H2                           1.0000000         0.000      0.000

 O/F=    1.00000  %FUEL= 50.000000  R,EQ.RATIO= 0.000000  PHI,EQ.RATIO=-1.000000

 THERMODYNAMIC PROPERTIES

 P, BAR            67.000   67.000   67.000   67.000   67.000   67.000   67.000   67.000
 T, K             1710.00  1720.00  1730.00  1740.00  1750.00  1760.00  1770.00  1780.00
 RHO, KG/CU M    9.4996-1 9.4443-1 9.3897-1 9.3358-1 9.2824-1 9.2296-1 9.1775-1 9.1259-1
 H, KJ/KG         21414.6  21579.5  21744.7  21910.1  22075.6  22241.4  22407.4  22573.7
 U, KJ/KG         14361.7  14485.3  14609.2  14733.3  14857.7  14982.2  15107.0  15232.0
 G, KJ/KG       -104279.2-105014.7-105751.2-106488.6-107227.0-107966.4-108706.6-109447.9
 S, KJ/(KG)(K)    73.5051  73.6013  73.6970  73.7923  73.8872  73.9817  74.0758  74.1694

 M, (1/n)           2.016    2.016    2.016    2.016    2.016    2.016    2.016    2.016
 (dLV/dLP)t      -1.00000 -1.00000 -1.00000 -1.00000 -1.00000 -1.00000 -1.00000 -1.00001
 (dLV/dLT)p        1.0002   1.0002   1.0002   1.0002   1.0002   1.0002   1.0003   1.0003
 Cp, KJ/(KG)(K)   16.4820  16.5037  16.5253  16.5471  16.5688  16.5907  16.6126  16.6345
 GAMMAs            1.3339   1.3333   1.3328   1.3322   1.3316   1.3311   1.3305   1.3299
 SON VEL,M/SEC     3067.2   3075.5   3083.8   3092.1   3100.3   3108.5   3116.6   3124.8

 TRANSPORT PROPERTIES (GASES ONLY)
   CONDUCTIVITY IN UNITS OF MILLIWATTS/(CM)(K)

 VISC,MILLIPOISE  0.29919  0.30044  0.30168  0.30293  0.30418  0.30542  0.30667  0.30791

  WITH EQUILIBRIUM REACTIONS

 Cp, KJ/(KG)(K)   16.4820  16.5037  16.5253  16.5471  16.5688  16.5907  16.6126  16.6345
 CONDUCTIVITY      7.0253   7.0639   7.1026   7.1414   7.1804   7.2196   7.2589   7.2984
 PRANDTL NUMBER    0.7019   0.7019   0.7019   0.7019   0.7019   0.7019   0.7018   0.7018

  WITH FROZEN REACTIONS

 Cp, KJ/(KG)(K)   16.4614  16.4813  16.5012  16.5209  16.5405  16.5601  16.5796  16.5990
 CONDUCTIVITY      7.0089   7.0460   7.0831   7.1202   7.1574   7.1946   7.2318   7.2690
 PRANDTL NUMBER    0.7027   0.7028   0.7028   0.7029   0.7029   0.7030   0.7031   0.7031

 MASS FRACTIONS

 *H               0.00001  0.00001  0.00001  0.00001  0.00001  0.00002  0.00002  0.00002
 *H2              0.99999  0.99999  0.99999  0.99999  0.99999  0.99998  0.99998  0.99998

  * THERMODYNAMIC PROPERTIES FITTED TO 20000.K

 NOTE. WEIGHT FRACTION OF FUEL IN TOTAL FUELS AND OF OXIDANT IN TOTAL OXIDANTS









               THERMODYNAMIC EQUILIBRIUM PROPERTIES AT ASSIGNED

                           TEMPERATURE AND PRESSURE

 CASE =                

             REACTANT                    WT FRACTION      ENERGY      TEMP
                                          (SEE NOTE)     KJ/KG-MOL      K  
 FUEL        H2                           1.0000000         0.000      0.000
 OXIDANT     H2                           1.0000000         0.000      0.000

 O/F=    1.00000  %FUEL= 50.000000  R,EQ.RATIO= 0.000000  PHI,EQ.RATIO=-1.000000

 THERMODYNAMIC PROPERTIES

 P, BAR            67.000   67.000   67.000   67.000   67.000   67.000   74.000   74.000
 T, K             1790.00  1800.00  1810.00  1820.00  1830.00  1840.00  1700.00  1710.00
 RHO, KG/CU M    9.0749-1 9.0245-1 8.9746-1 8.9253-1 8.8765-1 8.8282-1 1.0554 0 1.0492 0
 H, KJ/KG         22740.1  22906.8  23073.7  23240.8  23408.2  23575.7  21249.8  21414.5
 U, KJ/KG         15357.2  15482.6  15608.2  15734.1  15860.2  15986.5  14238.1  14361.6
 G, KJ/KG       -110190.0-110933.1-111677.1-112422.1-113167.9-113914.7-102847.9-103578.3
 S, KJ/(KG)(K)    74.2627  74.3555  74.4480  74.5401  74.6318  74.7231  72.9987  73.0952

 M, (1/n)           2.016    2.016    2.016    2.016    2.016    2.016    2.016    2.016
 (dLV/dLP)t      -1.00001 -1.00001 -1.00001 -1.00001 -1.00001 -1.00001 -1.00000 -1.00000
 (dLV/dLT)p        1.0003   1.0003   1.0004   1.0004   1.0004   1.0005   1.0001   1.0001
 Cp, KJ/(KG)(K)   16.6566  16.6787  16.7010  16.7233  16.7458  16.7683  16.4595  16.4810
 GAMMAs            1.3294   1.3288   1.3283   1.3277   1.3271   1.3266   1.3345   1.3339
 SON VEL,M/SEC     3132.9   3140.9   3149.0   3157.0   3165.0   3173.0   3058.9   3067.3

 TRANSPORT PROPERTIES (GASES ONLY)
   CONDUCTIVITY IN UNITS OF MILLIWATTS/(CM)(K)

 VISC,MILLIPOISE  0.30915  0.31039  0.31164  0.31288  0.31412  0.31536  0.29794  0.29919

  WITH EQUILIBRIUM REACTIONS

 Cp, KJ/(KG)(K)   16.6566  16.6787  16.7010  16.7233  16.7458  16.7683  16.4595  16.4810
 CONDUCTIVITY      7.3380   7.3779   7.4179   7.4582   7.4986   7.5393   6.9862   7.0245
 PRANDTL NUMBER    0.7017   0.7017   0.7016   0.7016   0.7015   0.7014   0.7019   0.7020

  WITH FROZEN REACTIONS

 Cp, KJ/(KG)(K)   16.6183  16.6375  16.6566  16.6756  16.6946  16.7134  16.4415  16.4614
 CONDUCTIVITY      7.3062   7.3435   7.3807   7.4180   7.4553   7.4927   6.9719   7.0089
 PRANDTL NUMBER    0.7032   0.7032   0.7033   0.7033   0.7034   0.7034   0.7026   0.7027

 MASS FRACTIONS

 *H               0.00002  0.00002  0.00002  0.00003  0.00003  0.00003  0.00001  0.00001
 *H2              0.99998  0.99998  0.99998  0.99997  0.99997  0.99997  0.99999  0.99999

  * THERMODYNAMIC PROPERTIES FITTED TO 20000.K

 NOTE. WEIGHT FRACTION OF FUEL IN TOTAL FUELS AND OF OXIDANT IN TOTAL OXIDANTS









               THERMODYNAMIC EQUILIBRIUM PROPERTIES AT ASSIGNED

                           TEMPERATURE AND PRESSURE

 CASE =                

             REACTANT                    WT FRACTION      ENERGY      TEMP
                                          (SEE NOTE)     KJ/KG-MOL      K  
 FUEL        H2                           1.0000000         0.000      0.000
 OXIDANT     H2                           1.0000000         0.000      0.000

 O/F=    1.00000  %FUEL= 50.000000  R,EQ.RATIO= 0.000000  PHI,EQ.RATIO=-1.000000

 THERMODYNAMIC PROPERTIES

 P, BAR            74.000   74.000   74.000   74.000   74.000   74.000   74.000   74.000
 T, K             1720.00  1730.00  1740.00  1750.00  1760.00  1770.00  1780.00  1790.00
 RHO, KG/CU M    1.0431 0 1.0371 0 1.0311 0 1.0252 0 1.0194 0 1.0136 0 1.0079 0 1.0023 0
 H, KJ/KG         21579.4  21744.6  21909.9  22075.5  22241.3  22407.3  22573.5  22739.9
 U, KJ/KG         14485.2  14609.1  14733.2  14857.5  14982.0  15106.8  15231.8  15356.9
 G, KJ/KG       -104309.7-105042.1-105775.4-106509.7-107245.0-107981.2-108718.3-109456.4
 S, KJ/(KG)(K)    73.1914  73.2871  73.3824  73.4773  73.5717  73.6658  73.7594  73.8527

 M, (1/n)           2.016    2.016    2.016    2.016    2.016    2.016    2.016    2.016
 (dLV/dLP)t      -1.00000 -1.00000 -1.00000 -1.00000 -1.00000 -1.00000 -1.00000 -1.00001
 (dLV/dLT)p        1.0002   1.0002   1.0002   1.0002   1.0002   1.0002   1.0003   1.0003
 Cp, KJ/(KG)(K)   16.5026  16.5242  16.5458  16.5675  16.5892  16.6110  16.6328  16.6547
 GAMMAs            1.3334   1.3328   1.3322   1.3317   1.3311   1.3305   1.3300   1.3294
 SON VEL,M/SEC     3075.6   3083.8   3092.1   3100.3   3108.5   3116.7   3124.8   3132.9

 TRANSPORT PROPERTIES (GASES ONLY)
   CONDUCTIVITY IN UNITS OF MILLIWATTS/(CM)(K)

 VISC,MILLIPOISE  0.30044  0.30168  0.30293  0.30418  0.30542  0.30667  0.30791  0.30915

  WITH EQUILIBRIUM REACTIONS

 Cp, KJ/(KG)(K)   16.5026  16.5242  16.5458  16.5675  16.5892  16.6110  16.6328  16.6547
 CONDUCTIVITY      7.0630   7.1016   7.1404   7.1793   7.2184   7.2576   7.2969   7.3365
 PRANDTL NUMBER    0.7020   0.7020   0.7020   0.7019   0.7019   0.7019   0.7019   0.7018

  WITH FROZEN REACTIONS

 Cp, KJ/(KG)(K)   16.4813  16.5012  16.5209  16.5405  16.5601  16.5796  16.5990  16.6183
 CONDUCTIVITY      7.0460   7.0831   7.1202   7.1574   7.1945   7.2317   7.2690   7.3062
 PRANDTL NUMBER    0.7028   0.7028   0.7029   0.7029   0.7030   0.7031   0.7031   0.7032

 MASS FRACTIONS

 *H               0.00001  0.00001  0.00001  0.00001  0.00001  0.00002  0.00002  0.00002
 *H2              0.99999  0.99999  0.99999  0.99999  0.99999  0.99998  0.99998  0.99998

  * THERMODYNAMIC PROPERTIES FITTED TO 20000.K

 NOTE. WEIGHT FRACTION OF FUEL IN TOTAL FUELS AND OF OXIDANT IN TOTAL OXIDANTS









               THERMODYNAMIC EQUILIBRIUM PROPERTIES AT ASSIGNED

                           TEMPERATURE AND PRESSURE

 CASE =                

             REACTANT                    WT FRACTION      ENERGY      TEMP
                                          (SEE NOTE)     KJ/KG-MOL      K  
 FUEL        H2                           1.0000000         0.000      0.000
 OXIDANT     H2                           1.0000000         0.000      0.000

 O/F=    1.00000  %FUEL= 50.000000  R,EQ.RATIO= 0.000000  PHI,EQ.RATIO=-1.000000

 THERMODYNAMIC PROPERTIES

 P, BAR            74.000   74.000   74.000   74.000   74.000   82.500   82.500   82.500
 T, K             1800.00  1810.00  1820.00  1830.00  1840.00  1700.00  1710.00  1720.00
 RHO, KG/CU M    9.9674-1 9.9123-1 9.8578-1 9.8039-1 9.7506-1 1.1766 0 1.1697 0 1.1629 0
 H, KJ/KG         22906.6  23073.5  23240.6  23407.9  23575.4  21249.7  21414.4  21579.3
 U, KJ/KG         15482.3  15608.0  15733.8  15859.9  15986.1  14238.0  14361.5  14485.1
 G, KJ/KG       -110195.4-110935.3-111676.1-112417.9-113160.5-102085.5-102811.4-103538.3
 S, KJ/(KG)(K)    73.9455  74.0380  74.1300  74.2217  74.3130  72.5501  72.6467  72.7428

 M, (1/n)           2.016    2.016    2.016    2.016    2.016    2.016    2.016    2.016
 (dLV/dLP)t      -1.00001 -1.00001 -1.00001 -1.00001 -1.00001 -1.00000 -1.00000 -1.00000
 (dLV/dLT)p        1.0003   1.0003   1.0004   1.0004   1.0004   1.0001   1.0001   1.0002
 Cp, KJ/(KG)(K)   16.6767  16.6988  16.7210  16.7433  16.7657  16.4585  16.4800  16.5015
 GAMMAs            1.3289   1.3283   1.3277   1.3272   1.3266   1.3345   1.3339   1.3334
 SON VEL,M/SEC     3141.0   3149.0   3157.1   3165.1   3173.0   3059.0   3067.3   3075.6

 TRANSPORT PROPERTIES (GASES ONLY)
   CONDUCTIVITY IN UNITS OF MILLIWATTS/(CM)(K)

 VISC,MILLIPOISE  0.31039  0.31164  0.31288  0.31412  0.31535  0.29794  0.29919  0.30043

  WITH EQUILIBRIUM REACTIONS

 Cp, KJ/(KG)(K)   16.6767  16.6988  16.7210  16.7433  16.7657  16.4585  16.4800  16.5014
 CONDUCTIVITY      7.3762   7.4161   7.4562   7.4965   7.5370   6.9854   7.0237   7.0621
 PRANDTL NUMBER    0.7018   0.7017   0.7016   0.7016   0.7015   0.7020   0.7020   0.7020

  WITH FROZEN REACTIONS

 Cp, KJ/(KG)(K)   16.6375  16.6566  16.6756  16.6946  16.7134  16.4414  16.4614  16.4813
 CONDUCTIVITY      7.3434   7.3807   7.4180   7.4553   7.4926   6.9718   7.0089   7.0459
 PRANDTL NUMBER    0.7032   0.7033   0.7033   0.7034   0.7034   0.7026   0.7027   0.7028

 MASS FRACTIONS

 *H               0.00002  0.00002  0.00002  0.00003  0.00003  0.00001  0.00001  0.00001
 *H2              0.99998  0.99998  0.99998  0.99997  0.99997  0.99999  0.99999  0.99999

  * THERMODYNAMIC PROPERTIES FITTED TO 20000.K

 NOTE. WEIGHT FRACTION OF FUEL IN TOTAL FUELS AND OF OXIDANT IN TOTAL OXIDANTS









               THERMODYNAMIC EQUILIBRIUM PROPERTIES AT ASSIGNED

                           TEMPERATURE AND PRESSURE

 CASE =                

             REACTANT                    WT FRACTION      ENERGY      TEMP
                                          (SEE NOTE)     KJ/KG-MOL      K  
 FUEL        H2                           1.0000000         0.000      0.000
 OXIDANT     H2                           1.0000000         0.000      0.000

 O/F=    1.00000  %FUEL= 50.000000  R,EQ.RATIO= 0.000000  PHI,EQ.RATIO=-1.000000

 THERMODYNAMIC PROPERTIES

 P, BAR            82.500   82.500   82.500   82.500   82.500   82.500   82.500   82.500
 T, K             1730.00  1740.00  1750.00  1760.00  1770.00  1780.00  1790.00  1800.00
 RHO, KG/CU M    1.1562 0 1.1496 0 1.1430 0 1.1365 0 1.1301 0 1.1237 0 1.1174 0 1.1112 0
 H, KJ/KG         21744.4  21909.8  22075.3  22241.1  22407.1  22573.3  22739.7  22906.3
 U, KJ/KG         14609.0  14733.1  14857.4  14981.9  15106.6  15231.6  15356.7  15482.1
 G, KJ/KG       -104266.2-104995.1-105724.9-106455.7-107187.4-107920.0-108653.6-109388.1
 S, KJ/(KG)(K)    72.8385  72.9338  73.0287  73.1232  73.2172  73.3108  73.4041  73.4969

 M, (1/n)           2.016    2.016    2.016    2.016    2.016    2.016    2.016    2.016
 (dLV/dLP)t      -1.00000 -1.00000 -1.00000 -1.00000 -1.00000 -1.00000 -1.00000 -1.00001
 (dLV/dLT)p        1.0002   1.0002   1.0002   1.0002   1.0002   1.0003   1.0003   1.0003
 Cp, KJ/(KG)(K)   16.5229  16.5445  16.5660  16.5876  16.6093  16.6310  16.6528  16.6746
 GAMMAs            1.3328   1.3322   1.3317   1.3311   1.3306   1.3300   1.3295   1.3289
 SON VEL,M/SEC     3083.9   3092.1   3100.3   3108.5   3116.7   3124.8   3132.9   3141.0

 TRANSPORT PROPERTIES (GASES ONLY)
   CONDUCTIVITY IN UNITS OF MILLIWATTS/(CM)(K)

 VISC,MILLIPOISE  0.30168  0.30293  0.30418  0.30542  0.30667  0.30791  0.30915  0.31039

  WITH EQUILIBRIUM REACTIONS

 Cp, KJ/(KG)(K)   16.5229  16.5445  16.5660  16.5876  16.6093  16.6310  16.6528  16.6746
 CONDUCTIVITY      7.1007   7.1393   7.1781   7.2171   7.2562   7.2954   7.3349   7.3744
 PRANDTL NUMBER    0.7020   0.7020   0.7020   0.7020   0.7020   0.7019   0.7019   0.7018

  WITH FROZEN REACTIONS

 Cp, KJ/(KG)(K)   16.5012  16.5209  16.5405  16.5601  16.5796  16.5990  16.6182  16.6375
 CONDUCTIVITY      7.0831   7.1202   7.1574   7.1945   7.2317   7.2689   7.3062   7.3434
 PRANDTL NUMBER    0.7028   0.7029   0.7029   0.7030   0.7031   0.7031   0.7032   0.7032

 MASS FRACTIONS

 *H               0.00001  0.00001  0.00001  0.00001  0.00002  0.00002  0.00002  0.00002
 *H2              0.99999  0.99999  0.99999  0.99999  0.99998  0.99998  0.99998  0.99998

  * THERMODYNAMIC PROPERTIES FITTED TO 20000.K

 NOTE. WEIGHT FRACTION OF FUEL IN TOTAL FUELS AND OF OXIDANT IN TOTAL OXIDANTS









               THERMODYNAMIC EQUILIBRIUM PROPERTIES AT ASSIGNED

                           TEMPERATURE AND PRESSURE

 CASE =                

             REACTANT                    WT FRACTION      ENERGY      TEMP
                                          (SEE NOTE)     KJ/KG-MOL      K  
 FUEL        H2                           1.0000000         0.000      0.000
 OXIDANT     H2                           1.0000000         0.000      0.000

 O/F=    1.00000  %FUEL= 50.000000  R,EQ.RATIO= 0.000000  PHI,EQ.RATIO=-1.000000

 THERMODYNAMIC PROPERTIES

 P, BAR            82.500   82.500   82.500   82.500   91.000   91.000   91.000   91.000
 T, K             1810.00  1820.00  1830.00  1840.00  1700.00  1710.00  1720.00  1730.00
 RHO, KG/CU M    1.1051 0 1.0990 0 1.0930 0 1.0871 0 1.2978 0 1.2902 0 1.2827 0 1.2753 0
 H, KJ/KG         23073.2  23240.3  23407.6  23575.1  21249.6  21414.3  21579.2  21744.3
 U, KJ/KG         15607.7  15733.5  15859.6  15985.8  14237.9  14361.4  14485.0  14608.9
 G, KJ/KG       -110123.5-110859.9-111597.1-112335.3-101397.9-102119.8-102842.7-103566.5
 S, KJ/(KG)(K)    73.5893  73.6814  73.7731  73.8644  72.1456  72.2422  72.3383  72.4340

 M, (1/n)           2.016    2.016    2.016    2.016    2.016    2.016    2.016    2.016
 (dLV/dLP)t      -1.00001 -1.00001 -1.00001 -1.00001 -1.00000 -1.00000 -1.00000 -1.00000
 (dLV/dLT)p        1.0003   1.0003   1.0004   1.0004   1.0001   1.0001   1.0001   1.0002
 Cp, KJ/(KG)(K)   16.6966  16.7186  16.7407  16.7629  16.4577  16.4791  16.5005  16.5219
 GAMMAs            1.3283   1.3278   1.3272   1.3267   1.3345   1.3340   1.3334   1.3328
 SON VEL,M/SEC     3149.1   3157.1   3165.1   3173.1   3059.0   3067.3   3075.6   3083.9

 TRANSPORT PROPERTIES (GASES ONLY)
   CONDUCTIVITY IN UNITS OF MILLIWATTS/(CM)(K)

 VISC,MILLIPOISE  0.31163  0.31288  0.31412  0.31535  0.29794  0.29919  0.30043  0.30168

  WITH EQUILIBRIUM REACTIONS

 Cp, KJ/(KG)(K)   16.6966  16.7186  16.7407  16.7629  16.4577  16.4791  16.5005  16.5219
 CONDUCTIVITY      7.4142   7.4542   7.4943   7.5347   6.9848   7.0230   7.0613   7.0998
 PRANDTL NUMBER    0.7018   0.7017   0.7017   0.7016   0.7020   0.7020   0.7020   0.7020

  WITH FROZEN REACTIONS

 Cp, KJ/(KG)(K)   16.6566  16.6756  16.6946  16.7134  16.4414  16.4614  16.4813  16.5012
 CONDUCTIVITY      7.3807   7.4180   7.4553   7.4926   6.9718   7.0089   7.0459   7.0831
 PRANDTL NUMBER    0.7033   0.7033   0.7034   0.7034   0.7026   0.7027   0.7028   0.7028

 MASS FRACTIONS

 *H               0.00002  0.00002  0.00003  0.00003  0.00001  0.00001  0.00001  0.00001
 *H2              0.99998  0.99998  0.99997  0.99997  0.99999  0.99999  0.99999  0.99999

  * THERMODYNAMIC PROPERTIES FITTED TO 20000.K

 NOTE. WEIGHT FRACTION OF FUEL IN TOTAL FUELS AND OF OXIDANT IN TOTAL OXIDANTS









               THERMODYNAMIC EQUILIBRIUM PROPERTIES AT ASSIGNED

                           TEMPERATURE AND PRESSURE

 CASE =                

             REACTANT                    WT FRACTION      ENERGY      TEMP
                                          (SEE NOTE)     KJ/KG-MOL      K  
 FUEL        H2                           1.0000000         0.000      0.000
 OXIDANT     H2                           1.0000000         0.000      0.000

 O/F=    1.00000  %FUEL= 50.000000  R,EQ.RATIO= 0.000000  PHI,EQ.RATIO=-1.000000

 THERMODYNAMIC PROPERTIES

 P, BAR            91.000   91.000   91.000   91.000   91.000   91.000   91.000   91.000
 T, K             1740.00  1750.00  1760.00  1770.00  1780.00  1790.00  1800.00  1810.00
 RHO, KG/CU M    1.2680 0 1.2607 0 1.2536 0 1.2465 0 1.2395 0 1.2326 0 1.2257 0 1.2189 0
 H, KJ/KG         21909.6  22075.2  22240.9  22406.9  22573.1  22739.5  22906.1  23073.0
 U, KJ/KG         14732.9  14857.2  14981.7  15106.5  15231.4  15356.5  15481.9  15607.5
 G, KJ/KG       -104291.3-105017.1-105743.8-106471.5-107200.1-107929.6-108660.1-109391.4
 S, KJ/(KG)(K)    72.5293  72.6242  72.7186  72.8126  72.9063  72.9995  73.0923  73.1847

 M, (1/n)           2.016    2.016    2.016    2.016    2.016    2.016    2.016    2.016
 (dLV/dLP)t      -1.00000 -1.00000 -1.00000 -1.00000 -1.00000 -1.00000 -1.00000 -1.00001
 (dLV/dLT)p        1.0002   1.0002   1.0002   1.0002   1.0002   1.0003   1.0003   1.0003
 Cp, KJ/(KG)(K)   16.5433  16.5648  16.5863  16.6079  16.6295  16.6511  16.6729  16.6946
 GAMMAs            1.3323   1.3317   1.3312   1.3306   1.3300   1.3295   1.3289   1.3284
 SON VEL,M/SEC     3092.1   3100.4   3108.6   3116.7   3124.9   3133.0   3141.1   3149.1

 TRANSPORT PROPERTIES (GASES ONLY)
   CONDUCTIVITY IN UNITS OF MILLIWATTS/(CM)(K)

 VISC,MILLIPOISE  0.30293  0.30418  0.30542  0.30667  0.30791  0.30915  0.31039  0.31163

  WITH EQUILIBRIUM REACTIONS

 Cp, KJ/(KG)(K)   16.5433  16.5648  16.5863  16.6079  16.6295  16.6511  16.6729  16.6946
 CONDUCTIVITY      7.1384   7.1771   7.2160   7.2550   7.2942   7.3335   7.3729   7.4126
 PRANDTL NUMBER    0.7020   0.7020   0.7020   0.7020   0.7020   0.7019   0.7019   0.7019

  WITH FROZEN REACTIONS

 Cp, KJ/(KG)(K)   16.5209  16.5405  16.5601  16.5796  16.5989  16.6182  16.6375  16.6566
 CONDUCTIVITY      7.1202   7.1573   7.1945   7.2317   7.2689   7.3062   7.3434   7.3807
 PRANDTL NUMBER    0.7029   0.7029   0.7030   0.7031   0.7031   0.7032   0.7032   0.7033

 MASS FRACTIONS

 *H               0.00001  0.00001  0.00001  0.00001  0.00002  0.00002  0.00002  0.00002
 *H2              0.99999  0.99999  0.99999  0.99999  0.99998  0.99998  0.99998  0.99998

  * THERMODYNAMIC PROPERTIES FITTED TO 20000.K

 NOTE. WEIGHT FRACTION OF FUEL IN TOTAL FUELS AND OF OXIDANT IN TOTAL OXIDANTS









               THERMODYNAMIC EQUILIBRIUM PROPERTIES AT ASSIGNED

                           TEMPERATURE AND PRESSURE

 CASE =                

             REACTANT                    WT FRACTION      ENERGY      TEMP
                                          (SEE NOTE)     KJ/KG-MOL      K  
 FUEL        H2                           1.0000000         0.000      0.000
 OXIDANT     H2                           1.0000000         0.000      0.000

 O/F=    1.00000  %FUEL= 50.000000  R,EQ.RATIO= 0.000000  PHI,EQ.RATIO=-1.000000

 THERMODYNAMIC PROPERTIES

 P, BAR            91.000   91.000   91.000   100.00   100.00   100.00   100.00   100.00
 T, K             1820.00  1830.00  1840.00  1700.00  1710.00  1720.00  1730.00  1740.00
 RHO, KG/CU M    1.2122 0 1.2056 0 1.1991 0 1.4262 0 1.4178 0 1.4096 0 1.4015 0 1.3934 0
 H, KJ/KG         23240.0  23407.3  23574.8  21249.6  21414.2  21579.1  21744.2  21909.5
 U, KJ/KG         15733.3  15859.3  15985.5  14237.9  14361.3  14484.9  14608.8  14732.8
 G, KJ/KG       -110123.7-110857.0-111591.1-100736.6-101454.6-102173.6-102893.6-103614.5
 S, KJ/(KG)(K)    73.2768  73.3684  73.4597  71.7566  71.8531  71.9493  72.0450  72.1402

 M, (1/n)           2.016    2.016    2.016    2.016    2.016    2.016    2.016    2.016
 (dLV/dLP)t      -1.00001 -1.00001 -1.00001 -1.00000 -1.00000 -1.00000 -1.00000 -1.00000
 (dLV/dLT)p        1.0003   1.0004   1.0004   1.0001   1.0001   1.0001   1.0002   1.0002
 Cp, KJ/(KG)(K)   16.7165  16.7385  16.7605  16.4570  16.4783  16.4996  16.5209  16.5423
 GAMMAs            1.3278   1.3273   1.3267   1.3345   1.3340   1.3334   1.3329   1.3323
 SON VEL,M/SEC     3157.2   3165.2   3173.2   3059.0   3067.3   3075.6   3083.9   3092.2

 TRANSPORT PROPERTIES (GASES ONLY)
   CONDUCTIVITY IN UNITS OF MILLIWATTS/(CM)(K)

 VISC,MILLIPOISE  0.31287  0.31411  0.31535  0.29794  0.29919  0.30043  0.30168  0.30293

  WITH EQUILIBRIUM REACTIONS

 Cp, KJ/(KG)(K)   16.7165  16.7385  16.7605  16.4570  16.4783  16.4996  16.5209  16.5423
 CONDUCTIVITY      7.4524   7.4924   7.5326   6.9842   7.0223   7.0606   7.0990   7.1376
 PRANDTL NUMBER    0.7018   0.7017   0.7017   0.7020   0.7021   0.7021   0.7021   0.7021

  WITH FROZEN REACTIONS

 Cp, KJ/(KG)(K)   16.6756  16.6946  16.7134  16.4414  16.4614  16.4813  16.5012  16.5209
 CONDUCTIVITY      7.4180   7.4553   7.4926   6.9718   7.0089   7.0459   7.0830   7.1202
 PRANDTL NUMBER    0.7033   0.7034   0.7034   0.7026   0.7027   0.7028   0.7028   0.7029

 MASS FRACTIONS

 *H               0.00002  0.00002  0.00003  0.00001  0.00001  0.00001  0.00001  0.00001
 *H2              0.99998  0.99998  0.99997  0.99999  0.99999  0.99999  0.99999  0.99999

  * THERMODYNAMIC PROPERTIES FITTED TO 20000.K

 NOTE. WEIGHT FRACTION OF FUEL IN TOTAL FUELS AND OF OXIDANT IN TOTAL OXIDANTS









               THERMODYNAMIC EQUILIBRIUM PROPERTIES AT ASSIGNED

                           TEMPERATURE AND PRESSURE

 CASE =                

             REACTANT                    WT FRACTION      ENERGY      TEMP
                                          (SEE NOTE)     KJ/KG-MOL      K  
 FUEL        H2                           1.0000000         0.000      0.000
 OXIDANT     H2                           1.0000000         0.000      0.000

 O/F=    1.00000  %FUEL= 50.000000  R,EQ.RATIO= 0.000000  PHI,EQ.RATIO=-1.000000

 THERMODYNAMIC PROPERTIES

 P, BAR            100.00   100.00   100.00   100.00   100.00   100.00   100.00   100.00
 T, K             1750.00  1760.00  1770.00  1780.00  1790.00  1800.00  1810.00  1820.00
 RHO, KG/CU M    1.3854 0 1.3776 0 1.3698 0 1.3621 0 1.3545 0 1.3469 0 1.3395 0 1.3321 0
 H, KJ/KG         22075.1  22240.8  22406.8  22572.9  22739.3  22905.9  23072.7  23239.8
 U, KJ/KG         14857.1  14981.6  15106.3  15231.2  15356.4  15481.7  15607.3  15733.1
 G, KJ/KG       -104336.4-105059.2-105783.0-106507.7-107233.3-107959.9-108687.4-109415.8
 S, KJ/(KG)(K)    72.2351  72.3295  72.4236  72.5172  72.6104  72.7032  72.7956  72.8877

 M, (1/n)           2.016    2.016    2.016    2.016    2.016    2.016    2.016    2.016
 (dLV/dLP)t      -1.00000 -1.00000 -1.00000 -1.00000 -1.00000 -1.00000 -1.00000 -1.00001
 (dLV/dLT)p        1.0002   1.0002   1.0002   1.0002   1.0003   1.0003   1.0003   1.0003
 Cp, KJ/(KG)(K)   16.5637  16.5851  16.6066  16.6281  16.6496  16.6712  16.6929  16.7146
 GAMMAs            1.3317   1.3312   1.3306   1.3301   1.3295   1.3290   1.3284   1.3279
 SON VEL,M/SEC     3100.4   3108.6   3116.8   3124.9   3133.0   3141.1   3149.2   3157.2

 TRANSPORT PROPERTIES (GASES ONLY)
   CONDUCTIVITY IN UNITS OF MILLIWATTS/(CM)(K)

 VISC,MILLIPOISE  0.30418  0.30542  0.30666  0.30791  0.30915  0.31039  0.31163  0.31287

  WITH EQUILIBRIUM REACTIONS

 Cp, KJ/(KG)(K)   16.5637  16.5851  16.6066  16.6281  16.6496  16.6712  16.6929  16.7146
 CONDUCTIVITY      7.1762   7.2150   7.2539   7.2930   7.3322   7.3716   7.4111   7.4508
 PRANDTL NUMBER    0.7021   0.7021   0.7021   0.7020   0.7020   0.7020   0.7019   0.7019

  WITH FROZEN REACTIONS

 Cp, KJ/(KG)(K)   16.5405  16.5601  16.5796  16.5989  16.6182  16.6375  16.6566  16.6756
 CONDUCTIVITY      7.1573   7.1945   7.2317   7.2689   7.3062   7.3434   7.3807   7.4180
 PRANDTL NUMBER    0.7029   0.7030   0.7031   0.7031   0.7032   0.7032   0.7033   0.7033

 MASS FRACTIONS

 *H               0.00001  0.00001  0.00001  0.00002  0.00002  0.00002  0.00002  0.00002
 *H2              0.99999  0.99999  0.99999  0.99998  0.99998  0.99998  0.99998  0.99998

  * THERMODYNAMIC PROPERTIES FITTED TO 20000.K

 NOTE. WEIGHT FRACTION OF FUEL IN TOTAL FUELS AND OF OXIDANT IN TOTAL OXIDANTS









               THERMODYNAMIC EQUILIBRIUM PROPERTIES AT ASSIGNED

                           TEMPERATURE AND PRESSURE

 CASE =                

             REACTANT                    WT FRACTION      ENERGY      TEMP
                                          (SEE NOTE)     KJ/KG-MOL      K  
 FUEL        H2                           1.0000000         0.000      0.000
 OXIDANT     H2                           1.0000000         0.000      0.000

 O/F=    1.00000  %FUEL= 50.000000  R,EQ.RATIO= 0.000000  PHI,EQ.RATIO=-1.000000

 THERMODYNAMIC PROPERTIES

 P, BAR            100.00   100.00   110.00   110.00   110.00   110.00   110.00   110.00
 T, K             1830.00  1840.00  1700.00  1710.00  1720.00  1730.00  1740.00  1750.00
 RHO, KG/CU M    1.3249 0 1.3177 0 1.5688 0 1.5596 0 1.5506 0 1.5416 0 1.5327 0 1.5240 0
 H, KJ/KG         23407.0  23574.5  21249.5  21414.1  21579.0  21744.1  21909.4  22074.9
 U, KJ/KG         15859.1  15985.3  14237.8  14361.2  14484.8  14608.7  14732.7  14857.0
 G, KJ/KG       -110145.1-110875.4-100068.4-100782.4-101497.5-102213.5-102930.5-103648.4
 S, KJ/(KG)(K)    72.9793  73.0706  71.3634  71.4600  71.5561  71.6518  71.7471  71.8419

 M, (1/n)           2.016    2.016    2.016    2.016    2.016    2.016    2.016    2.016
 (dLV/dLP)t      -1.00001 -1.00001 -1.00000 -1.00000 -1.00000 -1.00000 -1.00000 -1.00000
 (dLV/dLT)p        1.0003   1.0004   1.0001   1.0001   1.0001   1.0001   1.0002   1.0002
 Cp, KJ/(KG)(K)   16.7365  16.7584  16.4562  16.4775  16.4988  16.5200  16.5413  16.5626
 GAMMAs            1.3273   1.3268   1.3346   1.3340   1.3334   1.3329   1.3323   1.3318
 SON VEL,M/SEC     3165.2   3173.2   3059.0   3067.3   3075.7   3083.9   3092.2   3100.4

 TRANSPORT PROPERTIES (GASES ONLY)
   CONDUCTIVITY IN UNITS OF MILLIWATTS/(CM)(K)

 VISC,MILLIPOISE  0.31411  0.31535  0.29794  0.29919  0.30043  0.30168  0.30293  0.30418

  WITH EQUILIBRIUM REACTIONS

 Cp, KJ/(KG)(K)   16.7364  16.7584  16.4562  16.4775  16.4987  16.5200  16.5413  16.5626
 CONDUCTIVITY      7.4907   7.5308   6.9836   7.0217   7.0599   7.0983   7.1367   7.1753
 PRANDTL NUMBER    0.7018   0.7018   0.7021   0.7021   0.7021   0.7021   0.7021   0.7021

  WITH FROZEN REACTIONS

 Cp, KJ/(KG)(K)   16.6946  16.7134  16.4414  16.4614  16.4813  16.5011  16.5209  16.5405
 CONDUCTIVITY      7.4553   7.4926   6.9718   7.0089   7.0459   7.0830   7.1202   7.1573
 PRANDTL NUMBER    0.7034   0.7034   0.7026   0.7027   0.7028   0.7028   0.7029   0.7029

 MASS FRACTIONS

 *H               0.00002  0.00002  0.00001  0.00001  0.00001  0.00001  0.00001  0.00001
 *H2              0.99998  0.99998  0.99999  0.99999  0.99999  0.99999  0.99999  0.99999

  * THERMODYNAMIC PROPERTIES FITTED TO 20000.K

 NOTE. WEIGHT FRACTION OF FUEL IN TOTAL FUELS AND OF OXIDANT IN TOTAL OXIDANTS









               THERMODYNAMIC EQUILIBRIUM PROPERTIES AT ASSIGNED

                           TEMPERATURE AND PRESSURE

 CASE =                

             REACTANT                    WT FRACTION      ENERGY      TEMP
                                          (SEE NOTE)     KJ/KG-MOL      K  
 FUEL        H2                           1.0000000         0.000      0.000
 OXIDANT     H2                           1.0000000         0.000      0.000

 O/F=    1.00000  %FUEL= 50.000000  R,EQ.RATIO= 0.000000  PHI,EQ.RATIO=-1.000000

 THERMODYNAMIC PROPERTIES

 P, BAR            110.00   110.00   110.00   110.00   110.00   110.00   110.00   110.00
 T, K             1760.00  1770.00  1780.00  1790.00  1800.00  1810.00  1820.00  1830.00
 RHO, KG/CU M    1.5153 0 1.5068 0 1.4983 0 1.4899 0 1.4816 0 1.4735 0 1.4654 0 1.4573 0
 H, KJ/KG         22240.7  22406.6  22572.8  22739.1  22905.7  23072.5  23239.6  23406.8
 U, KJ/KG         14981.5  15106.2  15231.1  15356.2  15481.5  15607.1  15732.8  15858.8
 G, KJ/KG       -104367.3-105087.1-105807.9-106529.6-107252.3-107975.8-108700.3-109425.7
 S, KJ/(KG)(K)    71.9364  72.0304  72.1240  72.2172  72.3100  72.4024  72.4944  72.5861

 M, (1/n)           2.016    2.016    2.016    2.016    2.016    2.016    2.016    2.016
 (dLV/dLP)t      -1.00000 -1.00000 -1.00000 -1.00000 -1.00000 -1.00000 -1.00000 -1.00001
 (dLV/dLT)p        1.0002   1.0002   1.0002   1.0002   1.0003   1.0003   1.0003   1.0003
 Cp, KJ/(KG)(K)   16.5839  16.6053  16.6267  16.6481  16.6696  16.6912  16.7128  16.7345
 GAMMAs            1.3312   1.3306   1.3301   1.3295   1.3290   1.3285   1.3279   1.3274
 SON VEL,M/SEC     3108.6   3116.8   3124.9   3133.0   3141.1   3149.2   3157.2   3165.3

 TRANSPORT PROPERTIES (GASES ONLY)
   CONDUCTIVITY IN UNITS OF MILLIWATTS/(CM)(K)

 VISC,MILLIPOISE  0.30542  0.30666  0.30791  0.30915  0.31039  0.31163  0.31287  0.31411

  WITH EQUILIBRIUM REACTIONS

 Cp, KJ/(KG)(K)   16.5839  16.6053  16.6267  16.6481  16.6696  16.6912  16.7128  16.7345
 CONDUCTIVITY      7.2140   7.2529   7.2919   7.3310   7.3703   7.4097   7.4493   7.4890
 PRANDTL NUMBER    0.7021   0.7021   0.7021   0.7021   0.7020   0.7020   0.7019   0.7019

  WITH FROZEN REACTIONS

 Cp, KJ/(KG)(K)   16.5601  16.5796  16.5989  16.6182  16.6374  16.6566  16.6756  16.6945
 CONDUCTIVITY      7.1945   7.2317   7.2689   7.3061   7.3434   7.3807   7.4180   7.4553
 PRANDTL NUMBER    0.7030   0.7031   0.7031   0.7032   0.7032   0.7033   0.7033   0.7034

 MASS FRACTIONS

 *H               0.00001  0.00001  0.00001  0.00002  0.00002  0.00002  0.00002  0.00002
 *H2              0.99999  0.99999  0.99999  0.99998  0.99998  0.99998  0.99998  0.99998

  * THERMODYNAMIC PROPERTIES FITTED TO 20000.K

 NOTE. WEIGHT FRACTION OF FUEL IN TOTAL FUELS AND OF OXIDANT IN TOTAL OXIDANTS









               THERMODYNAMIC EQUILIBRIUM PROPERTIES AT ASSIGNED

                           TEMPERATURE AND PRESSURE

 CASE =                

             REACTANT                    WT FRACTION      ENERGY      TEMP
                                          (SEE NOTE)     KJ/KG-MOL      K  
 FUEL        H2                           1.0000000         0.000      0.000
 OXIDANT     H2                           1.0000000         0.000      0.000

 O/F=    1.00000  %FUEL= 50.000000  R,EQ.RATIO= 0.000000  PHI,EQ.RATIO=-1.000000

 THERMODYNAMIC PROPERTIES

 P, BAR            110.00   120.00   120.00   120.00   120.00   120.00   120.00   120.00
 T, K             1840.00  1700.00  1710.00  1720.00  1730.00  1740.00  1750.00  1760.00
 RHO, KG/CU M    1.4494 0 1.7114 0 1.7014 0 1.6915 0 1.6817 0 1.6721 0 1.6625 0 1.6531 0
 H, KJ/KG         23574.2  21249.4  21414.1  21578.9  21744.0  21909.3  22074.8  22240.5
 U, KJ/KG         15985.0  14237.7  14361.1  14484.7  14608.6  14732.6  14856.9  14981.3
 G, KJ/KG       -110152.0 -99458.2-100168.7-100880.2-101592.6-102306.0-103020.4-103735.7
 S, KJ/(KG)(K)    72.6773  71.0045  71.1010  71.1972  71.2929  71.3881  71.4830  71.5774

 M, (1/n)           2.016    2.016    2.016    2.016    2.016    2.016    2.016    2.016
 (dLV/dLP)t      -1.00001 -1.00000 -1.00000 -1.00000 -1.00000 -1.00000 -1.00000 -1.00000
 (dLV/dLT)p        1.0004   1.0001   1.0001   1.0001   1.0001   1.0002   1.0002   1.0002
 Cp, KJ/(KG)(K)   16.7563  16.4556  16.4768  16.4980  16.5192  16.5404  16.5617  16.5829
 GAMMAs            1.3268   1.3346   1.3340   1.3334   1.3329   1.3323   1.3318   1.3312
 SON VEL,M/SEC     3173.3   3059.0   3067.4   3075.7   3083.9   3092.2   3100.4   3108.6

 TRANSPORT PROPERTIES (GASES ONLY)
   CONDUCTIVITY IN UNITS OF MILLIWATTS/(CM)(K)

 VISC,MILLIPOISE  0.31535  0.29794  0.29919  0.30043  0.30168  0.30293  0.30418  0.30542

  WITH EQUILIBRIUM REACTIONS

 Cp, KJ/(KG)(K)   16.7563  16.4556  16.4768  16.4980  16.5192  16.5404  16.5617  16.5829
 CONDUCTIVITY      7.5290   6.9830   7.0211   7.0593   7.0976   7.1360   7.1746   7.2132
 PRANDTL NUMBER    0.7018   0.7021   0.7021   0.7021   0.7021   0.7022   0.7022   0.7022

  WITH FROZEN REACTIONS

 Cp, KJ/(KG)(K)   16.7134  16.4414  16.4614  16.4813  16.5011  16.5209  16.5405  16.5601
 CONDUCTIVITY      7.4926   6.9718   7.0088   7.0459   7.0830   7.1202   7.1573   7.1945
 PRANDTL NUMBER    0.7034   0.7026   0.7027   0.7028   0.7028   0.7029   0.7029   0.7030

 MASS FRACTIONS

 *H               0.00002  0.00001  0.00001  0.00001  0.00001  0.00001  0.00001  0.00001
 *H2              0.99998  0.99999  0.99999  0.99999  0.99999  0.99999  0.99999  0.99999

  * THERMODYNAMIC PROPERTIES FITTED TO 20000.K

 NOTE. WEIGHT FRACTION OF FUEL IN TOTAL FUELS AND OF OXIDANT IN TOTAL OXIDANTS









               THERMODYNAMIC EQUILIBRIUM PROPERTIES AT ASSIGNED

                           TEMPERATURE AND PRESSURE

 CASE =                

             REACTANT                    WT FRACTION      ENERGY      TEMP
                                          (SEE NOTE)     KJ/KG-MOL      K  
 FUEL        H2                           1.0000000         0.000      0.000
 OXIDANT     H2                           1.0000000         0.000      0.000

 O/F=    1.00000  %FUEL= 50.000000  R,EQ.RATIO= 0.000000  PHI,EQ.RATIO=-1.000000

 THERMODYNAMIC PROPERTIES

 P, BAR            120.00   120.00   120.00   120.00   120.00   120.00   120.00   120.00
 T, K             1770.00  1780.00  1790.00  1800.00  1810.00  1820.00  1830.00  1840.00
 RHO, KG/CU M    1.6437 0 1.6345 0 1.6254 0 1.6163 0 1.6074 0 1.5986 0 1.5898 0 1.5812 0
 H, KJ/KG         22406.5  22572.6  22739.0  22905.6  23072.4  23239.4  23406.6  23574.0
 U, KJ/KG         15106.0  15230.9  15356.0  15481.3  15606.9  15732.6  15858.6  15984.8
 G, KJ/KG       -104452.0-105169.1-105887.2-106606.3-107326.3-108047.2-108769.0-109491.7
 S, KJ/(KG)(K)    71.6714  71.7650  71.8582  71.9510  72.0434  72.1355  72.2271  72.3183

 M, (1/n)           2.016    2.016    2.016    2.016    2.016    2.016    2.016    2.016
 (dLV/dLP)t      -1.00001 -1.00001 -1.00001 -1.00001 -1.00001 -1.00001 -1.00001 -1.00001
 (dLV/dLT)p        1.0002   1.0002   1.0002   1.0002   1.0003   1.0003   1.0003   1.0003
 Cp, KJ/(KG)(K)   16.6042  16.6255  16.6469  16.6683  16.6897  16.7112  16.7328  16.7544
 GAMMAs            1.3307   1.3301   1.3296   1.3290   1.3285   1.3279   1.3274   1.3268
 SON VEL,M/SEC     3116.8   3125.0   3133.1   3141.2   3149.2   3157.3   3165.3   3173.3

 TRANSPORT PROPERTIES (GASES ONLY)
   CONDUCTIVITY IN UNITS OF MILLIWATTS/(CM)(K)

 VISC,MILLIPOISE  0.30666  0.30791  0.30915  0.31039  0.31163  0.31287  0.31411  0.31535

  WITH EQUILIBRIUM REACTIONS

 Cp, KJ/(KG)(K)   16.6042  16.6255  16.6469  16.6683  16.6897  16.7112  16.7328  16.7544
 CONDUCTIVITY      7.2520   7.2909   7.3299   7.3691   7.4084   7.4479   7.4876   7.5274
 PRANDTL NUMBER    0.7021   0.7021   0.7021   0.7021   0.7020   0.7020   0.7020   0.7019

  WITH FROZEN REACTIONS

 Cp, KJ/(KG)(K)   16.5796  16.5989  16.6182  16.6374  16.6566  16.6756  16.6945  16.7134
 CONDUCTIVITY      7.2317   7.2689   7.3061   7.3434   7.3807   7.4179   7.4552   7.4926
 PRANDTL NUMBER    0.7031   0.7031   0.7032   0.7032   0.7033   0.7033   0.7034   0.7034

 MASS FRACTIONS

 *H               0.00001  0.00001  0.00002  0.00002  0.00002  0.00002  0.00002  0.00002
 *H2              0.99999  0.99999  0.99999  0.99998  0.99998  0.99998  0.99998  0.99998

  * THERMODYNAMIC PROPERTIES FITTED TO 20000.K

 NOTE. WEIGHT FRACTION OF FUEL IN TOTAL FUELS AND OF OXIDANT IN TOTAL OXIDANTS









               THERMODYNAMIC EQUILIBRIUM PROPERTIES AT ASSIGNED

                           TEMPERATURE AND PRESSURE

 CASE =                

             REACTANT                    WT FRACTION      ENERGY      TEMP
                                          (SEE NOTE)     KJ/KG-MOL      K  
 FUEL        H2                           1.0000000         0.000      0.000
 OXIDANT     H2                           1.0000000         0.000      0.000

 O/F=    1.00000  %FUEL= 50.000000  R,EQ.RATIO= 0.000000  PHI,EQ.RATIO=-1.000000

 THERMODYNAMIC PROPERTIES

 P, BAR            132.00   132.00   132.00   132.00   132.00   132.00   132.00   132.00
 T, K             1700.00  1710.00  1720.00  1730.00  1740.00  1750.00  1760.00  1770.00
 RHO, KG/CU M    1.8826 0 1.8716 0 1.8607 0 1.8499 0 1.8393 0 1.8288 0 1.8184 0 1.8081 0
 H, KJ/KG         21249.3  21414.0  21578.8  21743.9  21909.2  22074.7  22240.4  22406.4
 U, KJ/KG         14237.6  14361.0  14484.6  14608.5  14732.5  14856.8  14981.2  15105.9
 G, KJ/KG        -98789.9 -99496.5-100204.0-100912.6-101622.0-102332.5-103043.8-103756.1
 S, KJ/(KG)(K)    70.6113  70.7079  70.8040  70.8997  70.9950  71.0898  71.1842  71.2782

 M, (1/n)           2.016    2.016    2.016    2.016    2.016    2.016    2.016    2.016
 (dLV/dLP)t      -1.00000 -1.00000 -1.00000 -1.00000 -1.00000 -1.00000 -1.00000 -1.00001
 (dLV/dLT)p        1.0001   1.0001   1.0001   1.0001   1.0001   1.0002   1.0002   1.0002
 Cp, KJ/(KG)(K)   16.4549  16.4761  16.4972  16.5184  16.5395  16.5607  16.5819  16.6031
 GAMMAs            1.3346   1.3340   1.3335   1.3329   1.3323   1.3318   1.3312   1.3307
 SON VEL,M/SEC     3059.0   3067.4   3075.7   3084.0   3092.2   3100.5   3108.7   3116.8

 TRANSPORT PROPERTIES (GASES ONLY)
   CONDUCTIVITY IN UNITS OF MILLIWATTS/(CM)(K)

 VISC,MILLIPOISE  0.29794  0.29919  0.30043  0.30168  0.30293  0.30417  0.30542  0.30666

  WITH EQUILIBRIUM REACTIONS

 Cp, KJ/(KG)(K)   16.4549  16.4761  16.4972  16.5184  16.5395  16.5607  16.5819  16.6031
 CONDUCTIVITY      6.9825   7.0205   7.0587   7.0969   7.1353   7.1738   7.2123   7.2510
 PRANDTL NUMBER    0.7021   0.7021   0.7022   0.7022   0.7022   0.7022   0.7022   0.7022

  WITH FROZEN REACTIONS

 Cp, KJ/(KG)(K)   16.4414  16.4614  16.4813  16.5011  16.5209  16.5405  16.5601  16.5796
 CONDUCTIVITY      6.9718   7.0088   7.0459   7.0830   7.1202   7.1573   7.1945   7.2317
 PRANDTL NUMBER    0.7026   0.7027   0.7028   0.7028   0.7029   0.7029   0.7030   0.7031

 MASS FRACTIONS

 *H               0.00001  0.00001  0.00001  0.00001  0.00001  0.00001  0.00001  0.00001
 *H2              0.99999  0.99999  0.99999  0.99999  0.99999  0.99999  0.99999  0.99999

  * THERMODYNAMIC PROPERTIES FITTED TO 20000.K

 NOTE. WEIGHT FRACTION OF FUEL IN TOTAL FUELS AND OF OXIDANT IN TOTAL OXIDANTS









               THERMODYNAMIC EQUILIBRIUM PROPERTIES AT ASSIGNED

                           TEMPERATURE AND PRESSURE

 CASE =                

             REACTANT                    WT FRACTION      ENERGY      TEMP
                                          (SEE NOTE)     KJ/KG-MOL      K  
 FUEL        H2                           1.0000000         0.000      0.000
 OXIDANT     H2                           1.0000000         0.000      0.000

 O/F=    1.00000  %FUEL= 50.000000  R,EQ.RATIO= 0.000000  PHI,EQ.RATIO=-1.000000

 THERMODYNAMIC PROPERTIES

 P, BAR            132.00   132.00   132.00   132.00   132.00   132.00   132.00   148.00
 T, K             1780.00  1790.00  1800.00  1810.00  1820.00  1830.00  1840.00  1700.00
 RHO, KG/CU M    1.7979 0 1.7879 0 1.7780 0 1.7681 0 1.7584 0 1.7488 0 1.7393 0 2.1108 0
 H, KJ/KG         22572.5  22738.8  22905.4  23072.2  23239.2  23406.4  23573.8  21249.2
 U, KJ/KG         15230.8  15355.9  15481.2  15606.7  15732.4  15858.4  15984.5  14237.5
 G, KJ/KG       -104469.4-105183.6-105898.7-106614.7-107331.7-108049.6-108768.4 -97987.7
 S, KJ/(KG)(K)    71.3718  71.4650  71.5578  71.6502  71.7422  71.8338  71.9251  70.1394

 M, (1/n)           2.016    2.016    2.016    2.016    2.016    2.016    2.016    2.016
 (dLV/dLP)t      -1.00001 -1.00001 -1.00001 -1.00001 -1.00001 -1.00001 -1.00001 -1.00000
 (dLV/dLT)p        1.0002   1.0002   1.0002   1.0003   1.0003   1.0003   1.0003   1.0001
 Cp, KJ/(KG)(K)   16.6243  16.6455  16.6668  16.6882  16.7096  16.7310  16.7525  16.4542
 GAMMAs            1.3301   1.3296   1.3290   1.3285   1.3280   1.3274   1.3269   1.3346
 SON VEL,M/SEC     3125.0   3133.1   3141.2   3149.3   3157.3   3165.3   3173.3   3059.1

 TRANSPORT PROPERTIES (GASES ONLY)
   CONDUCTIVITY IN UNITS OF MILLIWATTS/(CM)(K)

 VISC,MILLIPOISE  0.30791  0.30915  0.31039  0.31163  0.31287  0.31411  0.31535  0.29794

  WITH EQUILIBRIUM REACTIONS

 Cp, KJ/(KG)(K)   16.6243  16.6455  16.6668  16.6882  16.7096  16.7310  16.7525  16.4542
 CONDUCTIVITY      7.2898   7.3288   7.3679   7.4071   7.4465   7.4861   7.5258   6.9819
 PRANDTL NUMBER    0.7022   0.7022   0.7021   0.7021   0.7021   0.7020   0.7020   0.7021

  WITH FROZEN REACTIONS

 Cp, KJ/(KG)(K)   16.5989  16.6182  16.6374  16.6566  16.6756  16.6945  16.7134  16.4414
 CONDUCTIVITY      7.2689   7.3061   7.3434   7.3806   7.4179   7.4552   7.4925   6.9718
 PRANDTL NUMBER    0.7031   0.7032   0.7032   0.7033   0.7033   0.7034   0.7034   0.7026

 MASS FRACTIONS

 *H               0.00001  0.00001  0.00002  0.00002  0.00002  0.00002  0.00002  0.00001
 *H2              0.99999  0.99999  0.99998  0.99998  0.99998  0.99998  0.99998  0.99999

  * THERMODYNAMIC PROPERTIES FITTED TO 20000.K

 NOTE. WEIGHT FRACTION OF FUEL IN TOTAL FUELS AND OF OXIDANT IN TOTAL OXIDANTS









               THERMODYNAMIC EQUILIBRIUM PROPERTIES AT ASSIGNED

                           TEMPERATURE AND PRESSURE

 CASE =                

             REACTANT                    WT FRACTION      ENERGY      TEMP
                                          (SEE NOTE)     KJ/KG-MOL      K  
 FUEL        H2                           1.0000000         0.000      0.000
 OXIDANT     H2                           1.0000000         0.000      0.000

 O/F=    1.00000  %FUEL= 50.000000  R,EQ.RATIO= 0.000000  PHI,EQ.RATIO=-1.000000

 THERMODYNAMIC PROPERTIES

 P, BAR            148.00   148.00   148.00   148.00   148.00   148.00   148.00   148.00
 T, K             1710.00  1720.00  1730.00  1740.00  1750.00  1760.00  1770.00  1780.00
 RHO, KG/CU M    2.0984 0 2.0862 0 2.0742 0 2.0622 0 2.0504 0 2.0388 0 2.0273 0 2.0159 0
 H, KJ/KG         21413.9  21578.7  21743.8  21909.1  22074.6  22240.3  22406.2  22572.3
 U, KJ/KG         14360.9  14484.5  14608.4  14732.4  14856.6  14981.1  15105.7  15230.6
 G, KJ/KG        -98689.6 -99392.4-100096.2-100800.9-101506.7-102213.3-102920.9-103629.4
 S, KJ/(KG)(K)    70.2359  70.3321  70.4278  70.5230  70.6178  70.7123  70.8063  70.8999

 M, (1/n)           2.016    2.016    2.016    2.016    2.016    2.016    2.016    2.016
 (dLV/dLP)t      -1.00000 -1.00000 -1.00000 -1.00000 -1.00000 -1.00000 -1.00000 -1.00001
 (dLV/dLT)p        1.0001   1.0001   1.0001   1.0001   1.0001   1.0002   1.0002   1.0002
 Cp, KJ/(KG)(K)   16.4753  16.4963  16.5174  16.5385  16.5596  16.5806  16.6017  16.6229
 GAMMAs            1.3340   1.3335   1.3329   1.3324   1.3318   1.3313   1.3307   1.3302
 SON VEL,M/SEC     3067.4   3075.7   3084.0   3092.2   3100.5   3108.7   3116.9   3125.0

 TRANSPORT PROPERTIES (GASES ONLY)
   CONDUCTIVITY IN UNITS OF MILLIWATTS/(CM)(K)

 VISC,MILLIPOISE  0.29919  0.30043  0.30168  0.30293  0.30417  0.30542  0.30666  0.30791

  WITH EQUILIBRIUM REACTIONS

 Cp, KJ/(KG)(K)   16.4753  16.4963  16.5174  16.5385  16.5596  16.5806  16.6017  16.6229
 CONDUCTIVITY      7.0199   7.0580   7.0962   7.1344   7.1728   7.2113   7.2499   7.2887
 PRANDTL NUMBER    0.7022   0.7022   0.7022   0.7022   0.7022   0.7022   0.7022   0.7022

  WITH FROZEN REACTIONS

 Cp, KJ/(KG)(K)   16.4614  16.4813  16.5011  16.5209  16.5405  16.5601  16.5795  16.5989
 CONDUCTIVITY      7.0088   7.0459   7.0830   7.1202   7.1573   7.1945   7.2317   7.2689
 PRANDTL NUMBER    0.7027   0.7028   0.7028   0.7029   0.7029   0.7030   0.7031   0.7031

 MASS FRACTIONS

 *H               0.00001  0.00001  0.00001  0.00001  0.00001  0.00001  0.00001  0.00001
 *H2              0.99999  0.99999  0.99999  0.99999  0.99999  0.99999  0.99999  0.99999

  * THERMODYNAMIC PROPERTIES FITTED TO 20000.K

 NOTE. WEIGHT FRACTION OF FUEL IN TOTAL FUELS AND OF OXIDANT IN TOTAL OXIDANTS









               THERMODYNAMIC EQUILIBRIUM PROPERTIES AT ASSIGNED

                           TEMPERATURE AND PRESSURE

 CASE =                

             REACTANT                    WT FRACTION      ENERGY      TEMP
                                          (SEE NOTE)     KJ/KG-MOL      K  
 FUEL        H2                           1.0000000         0.000      0.000
 OXIDANT     H2                           1.0000000         0.000      0.000

 O/F=    1.00000  %FUEL= 50.000000  R,EQ.RATIO= 0.000000  PHI,EQ.RATIO=-1.000000

 THERMODYNAMIC PROPERTIES

 P, BAR            148.00   148.00   148.00   148.00   148.00   148.00   165.00   165.00
 T, K             1790.00  1800.00  1810.00  1820.00  1830.00  1840.00  1700.00  1710.00
 RHO, KG/CU M    2.0046 0 1.9935 0 1.9825 0 1.9716 0 1.9608 0 1.9501 0 2.3532 0 2.3394 0
 H, KJ/KG         22738.7  22905.2  23072.0  23238.9  23406.1  23573.5  21249.2  21413.8
 U, KJ/KG         15355.7  15481.0  15606.5  15732.2  15858.1  15984.3  14237.5  14360.9
 G, KJ/KG       -104338.9-105049.3-105760.6-106472.8-107186.0-107900.1 -97225.3 -97922.7
 S, KJ/(KG)(K)    70.9930  71.0858  71.1782  71.2702  71.3618  71.4530  69.6909  69.7874

 M, (1/n)           2.016    2.016    2.016    2.016    2.016    2.016    2.016    2.016
 (dLV/dLP)t      -1.00001 -1.00001 -1.00001 -1.00001 -1.00001 -1.00001 -1.00000 -1.00000
 (dLV/dLT)p        1.0002   1.0002   1.0002   1.0003   1.0003   1.0003   1.0001   1.0001
 Cp, KJ/(KG)(K)   16.6440  16.6652  16.6864  16.7077  16.7290  16.7503  16.4535  16.4745
 GAMMAs            1.3296   1.3291   1.3285   1.3280   1.3275   1.3269   1.3346   1.3341
 SON VEL,M/SEC     3133.1   3141.2   3149.3   3157.4   3165.4   3173.4   3059.1   3067.4

 TRANSPORT PROPERTIES (GASES ONLY)
   CONDUCTIVITY IN UNITS OF MILLIWATTS/(CM)(K)

 VISC,MILLIPOISE  0.30915  0.31039  0.31163  0.31287  0.31411  0.31535  0.29794  0.29919

  WITH EQUILIBRIUM REACTIONS

 Cp, KJ/(KG)(K)   16.6440  16.6652  16.6864  16.7077  16.7290  16.7503  16.4535  16.4745
 CONDUCTIVITY      7.3275   7.3665   7.4056   7.4449   7.4843   7.5239   6.9814   7.0193
 PRANDTL NUMBER    0.7022   0.7022   0.7022   0.7021   0.7021   0.7021   0.7022   0.7022

  WITH FROZEN REACTIONS

 Cp, KJ/(KG)(K)   16.6182  16.6374  16.6566  16.6756  16.6945  16.7134  16.4414  16.4614
 CONDUCTIVITY      7.3061   7.3434   7.3806   7.4179   7.4552   7.4925   6.9718   7.0088
 PRANDTL NUMBER    0.7032   0.7032   0.7033   0.7033   0.7034   0.7034   0.7026   0.7027

 MASS FRACTIONS

 *H               0.00001  0.00001  0.00002  0.00002  0.00002  0.00002  0.00001  0.00001
 *H2              0.99999  0.99999  0.99998  0.99998  0.99998  0.99998  0.99999  0.99999

  * THERMODYNAMIC PROPERTIES FITTED TO 20000.K

 NOTE. WEIGHT FRACTION OF FUEL IN TOTAL FUELS AND OF OXIDANT IN TOTAL OXIDANTS









               THERMODYNAMIC EQUILIBRIUM PROPERTIES AT ASSIGNED

                           TEMPERATURE AND PRESSURE

 CASE =                

             REACTANT                    WT FRACTION      ENERGY      TEMP
                                          (SEE NOTE)     KJ/KG-MOL      K  
 FUEL        H2                           1.0000000         0.000      0.000
 OXIDANT     H2                           1.0000000         0.000      0.000

 O/F=    1.00000  %FUEL= 50.000000  R,EQ.RATIO= 0.000000  PHI,EQ.RATIO=-1.000000

 THERMODYNAMIC PROPERTIES

 P, BAR            165.00   165.00   165.00   165.00   165.00   165.00   165.00   165.00
 T, K             1720.00  1730.00  1740.00  1750.00  1760.00  1770.00  1780.00  1790.00
 RHO, KG/CU M    2.3258 0 2.3124 0 2.2991 0 2.2860 0 2.2730 0 2.2601 0 2.2474 0 2.2349 0
 H, KJ/KG         21578.7  21743.7  21909.0  22074.5  22240.2  22406.1  22572.2  22738.5
 U, KJ/KG         14484.5  14608.3  14732.3  14856.5  14981.0  15105.6  15230.5  15355.5
 G, KJ/KG        -98621.0 -99320.3-100020.6-100721.8-101424.0-102127.1-102831.1-103536.1
 S, KJ/(KG)(K)    69.8835  69.9792  70.0745  70.1693  70.2637  70.3577  70.4513  70.5445

 M, (1/n)           2.016    2.016    2.016    2.016    2.016    2.016    2.016    2.016
 (dLV/dLP)t      -1.00000 -1.00000 -1.00000 -1.00000 -1.00000 -1.00000 -1.00000 -1.00001
 (dLV/dLT)p        1.0001   1.0001   1.0001   1.0001   1.0002   1.0002   1.0002   1.0002
 Cp, KJ/(KG)(K)   16.4955  16.5165  16.5375  16.5585  16.5796  16.6006  16.6216  16.6426
 GAMMAs            1.3335   1.3329   1.3324   1.3318   1.3313   1.3307   1.3302   1.3296
 SON VEL,M/SEC     3075.7   3084.0   3092.3   3100.5   3108.7   3116.9   3125.0   3133.2

 TRANSPORT PROPERTIES (GASES ONLY)
   CONDUCTIVITY IN UNITS OF MILLIWATTS/(CM)(K)

 VISC,MILLIPOISE  0.30043  0.30168  0.30293  0.30417  0.30542  0.30666  0.30791  0.30915

  WITH EQUILIBRIUM REACTIONS

 Cp, KJ/(KG)(K)   16.4955  16.5165  16.5375  16.5585  16.5796  16.6006  16.6216  16.6426
 CONDUCTIVITY      7.0573   7.0955   7.1337   7.1720   7.2104   7.2490   7.2876   7.3264
 PRANDTL NUMBER    0.7022   0.7022   0.7023   0.7023   0.7023   0.7023   0.7023   0.7023

  WITH FROZEN REACTIONS

 Cp, KJ/(KG)(K)   16.4813  16.5011  16.5209  16.5405  16.5601  16.5795  16.5989  16.6182
 CONDUCTIVITY      7.0459   7.0830   7.1202   7.1573   7.1945   7.2317   7.2689   7.3061
 PRANDTL NUMBER    0.7028   0.7028   0.7029   0.7029   0.7030   0.7031   0.7031   0.7032

 MASS FRACTIONS

 *H               0.00001  0.00001  0.00001  0.00001  0.00001  0.00001  0.00001  0.00001
 *H2              0.99999  0.99999  0.99999  0.99999  0.99999  0.99999  0.99999  0.99999

  * THERMODYNAMIC PROPERTIES FITTED TO 20000.K

 NOTE. WEIGHT FRACTION OF FUEL IN TOTAL FUELS AND OF OXIDANT IN TOTAL OXIDANTS









               THERMODYNAMIC EQUILIBRIUM PROPERTIES AT ASSIGNED

                           TEMPERATURE AND PRESSURE

 CASE =                

             REACTANT                    WT FRACTION      ENERGY      TEMP
                                          (SEE NOTE)     KJ/KG-MOL      K  
 FUEL        H2                           1.0000000         0.000      0.000
 OXIDANT     H2                           1.0000000         0.000      0.000

 O/F=    1.00000  %FUEL= 50.000000  R,EQ.RATIO= 0.000000  PHI,EQ.RATIO=-1.000000

 THERMODYNAMIC PROPERTIES

 P, BAR            165.00   165.00   165.00   165.00   165.00   180.00   180.00   180.00
 T, K             1800.00  1810.00  1820.00  1830.00  1840.00  1700.00  1710.00  1720.00
 RHO, KG/CU M    2.2225 0 2.2102 0 2.1980 0 2.1860 0 2.1741 0 2.5671 0 2.5521 0 2.5373 0
 H, KJ/KG         22905.0  23071.8  23238.7  23405.9  23573.3  21249.1  21413.8  21578.6
 U, KJ/KG         15480.8  15606.3  15732.0  15857.9  15984.0  14237.4  14360.8  14484.4
 G, KJ/KG       -104242.0-104948.9-105656.6-106365.3-107074.9 -96615.2 -97309.0 -98003.7
 S, KJ/(KG)(K)    70.6373  70.7296  70.8216  70.9132  71.0044  69.3320  69.4285  69.5246

 M, (1/n)           2.016    2.016    2.016    2.016    2.016    2.016    2.016    2.016
 (dLV/dLP)t      -1.00001 -1.00001 -1.00001 -1.00001 -1.00001 -1.00000 -1.00000 -1.00000
 (dLV/dLT)p        1.0002   1.0002   1.0002   1.0003   1.0003   1.0001   1.0001   1.0001
 Cp, KJ/(KG)(K)   16.6637  16.6848  16.7060  16.7272  16.7484  16.4530  16.4740  16.4949
 GAMMAs            1.3291   1.3286   1.3280   1.3275   1.3270   1.3346   1.3341   1.3335
 SON VEL,M/SEC     3141.3   3149.3   3157.4   3165.4   3173.4   3059.1   3067.4   3075.7

 TRANSPORT PROPERTIES (GASES ONLY)
   CONDUCTIVITY IN UNITS OF MILLIWATTS/(CM)(K)

 VISC,MILLIPOISE  0.31039  0.31163  0.31287  0.31411  0.31535  0.29794  0.29919  0.30043

  WITH EQUILIBRIUM REACTIONS

 Cp, KJ/(KG)(K)   16.6637  16.6848  16.7060  16.7271  16.7484  16.4530  16.4740  16.4949
 CONDUCTIVITY      7.3653   7.4043   7.4435   7.4828   7.5222   6.9810   7.0188   7.0568
 PRANDTL NUMBER    0.7023   0.7022   0.7022   0.7022   0.7021   0.7022   0.7022   0.7022

  WITH FROZEN REACTIONS

 Cp, KJ/(KG)(K)   16.6374  16.6566  16.6756  16.6945  16.7134  16.4414  16.4614  16.4813
 CONDUCTIVITY      7.3434   7.3806   7.4179   7.4552   7.4925   6.9718   7.0088   7.0459
 PRANDTL NUMBER    0.7032   0.7033   0.7033   0.7034   0.7034   0.7026   0.7027   0.7028

 MASS FRACTIONS

 *H               0.00001  0.00002  0.00002  0.00002  0.00002  0.00001  0.00001  0.00001
 *H2              0.99999  0.99998  0.99998  0.99998  0.99998  0.99999  0.99999  0.99999

  * THERMODYNAMIC PROPERTIES FITTED TO 20000.K

 NOTE. WEIGHT FRACTION OF FUEL IN TOTAL FUELS AND OF OXIDANT IN TOTAL OXIDANTS









               THERMODYNAMIC EQUILIBRIUM PROPERTIES AT ASSIGNED

                           TEMPERATURE AND PRESSURE

 CASE =                

             REACTANT                    WT FRACTION      ENERGY      TEMP
                                          (SEE NOTE)     KJ/KG-MOL      K  
 FUEL        H2                           1.0000000         0.000      0.000
 OXIDANT     H2                           1.0000000         0.000      0.000

 O/F=    1.00000  %FUEL= 50.000000  R,EQ.RATIO= 0.000000  PHI,EQ.RATIO=-1.000000

 THERMODYNAMIC PROPERTIES

 P, BAR            180.00   180.00   180.00   180.00   180.00   180.00   180.00   180.00
 T, K             1730.00  1740.00  1750.00  1760.00  1770.00  1780.00  1790.00  1800.00
 RHO, KG/CU M    2.5226 0 2.5081 0 2.4938 0 2.4796 0 2.4656 0 2.4517 0 2.4380 0 2.4245 0
 H, KJ/KG         21743.7  21908.9  22074.4  22240.1  22406.0  22572.1  22738.4  22904.9
 U, KJ/KG         14608.2  14732.2  14856.4  14980.9  15105.5  15230.4  15355.4  15480.7
 G, KJ/KG        -98699.5 -99396.1-100093.8-100792.4-101491.9-102192.3-102893.7-103596.0
 S, KJ/(KG)(K)    69.6203  69.7156  69.8104  69.9048  69.9988  70.0924  70.1855  70.2783

 M, (1/n)           2.016    2.016    2.016    2.016    2.016    2.016    2.016    2.016
 (dLV/dLP)t      -1.00000 -1.00000 -1.00000 -1.00000 -1.00000 -1.00000 -1.00001 -1.00001
 (dLV/dLT)p        1.0001   1.0001   1.0001   1.0001   1.0002   1.0002   1.0002   1.0002
 Cp, KJ/(KG)(K)   16.5159  16.5368  16.5578  16.5787  16.5997  16.6206  16.6416  16.6626
 GAMMAs            1.3330   1.3324   1.3318   1.3313   1.3308   1.3302   1.3297   1.3291
 SON VEL,M/SEC     3084.0   3092.3   3100.5   3108.7   3116.9   3125.1   3133.2   3141.3

 TRANSPORT PROPERTIES (GASES ONLY)
   CONDUCTIVITY IN UNITS OF MILLIWATTS/(CM)(K)

 VISC,MILLIPOISE  0.30168  0.30293  0.30417  0.30542  0.30666  0.30791  0.30915  0.31039

  WITH EQUILIBRIUM REACTIONS

 Cp, KJ/(KG)(K)   16.5159  16.5368  16.5578  16.5787  16.5997  16.6206  16.6416  16.6626
 CONDUCTIVITY      7.0949   7.1331   7.1714   7.2097   7.2482   7.2868   7.3255   7.3643
 PRANDTL NUMBER    0.7023   0.7023   0.7023   0.7023   0.7023   0.7023   0.7023   0.7023

  WITH FROZEN REACTIONS

 Cp, KJ/(KG)(K)   16.5011  16.5209  16.5405  16.5601  16.5795  16.5989  16.6182  16.6374
 CONDUCTIVITY      7.0830   7.1201   7.1573   7.1945   7.2317   7.2689   7.3061   7.3433
 PRANDTL NUMBER    0.7028   0.7029   0.7029   0.7030   0.7031   0.7031   0.7032   0.7032

 MASS FRACTIONS

 *H               0.00001  0.00001  0.00001  0.00001  0.00001  0.00001  0.00001  0.00001
 *H2              0.99999  0.99999  0.99999  0.99999  0.99999  0.99999  0.99999  0.99999

  * THERMODYNAMIC PROPERTIES FITTED TO 20000.K

 NOTE. WEIGHT FRACTION OF FUEL IN TOTAL FUELS AND OF OXIDANT IN TOTAL OXIDANTS









               THERMODYNAMIC EQUILIBRIUM PROPERTIES AT ASSIGNED

                           TEMPERATURE AND PRESSURE

 CASE =                

             REACTANT                    WT FRACTION      ENERGY      TEMP
                                          (SEE NOTE)     KJ/KG-MOL      K  
 FUEL        H2                           1.0000000         0.000      0.000
 OXIDANT     H2                           1.0000000         0.000      0.000

 O/F=    1.00000  %FUEL= 50.000000  R,EQ.RATIO= 0.000000  PHI,EQ.RATIO=-1.000000

 THERMODYNAMIC PROPERTIES

 P, BAR            180.00   180.00   180.00   180.00   200.00   200.00   200.00   200.00
 T, K             1810.00  1820.00  1830.00  1840.00  1700.00  1710.00  1720.00  1730.00
 RHO, KG/CU M    2.4111 0 2.3979 0 2.3847 0 2.3718 0 2.8524 0 2.8357 0 2.8192 0 2.8029 0
 H, KJ/KG         23071.6  23238.6  23405.7  23573.1  21249.1  21413.7  21578.5  21743.6
 U, KJ/KG         15606.2  15731.9  15857.8  15983.9  14237.4  14360.7  14484.3  14608.1
 G, KJ/KG       -104299.3-105003.4-105708.5-106414.5 -95876.4 -96565.9 -97256.3 -97947.7
 S, KJ/(KG)(K)    70.3707  70.4626  70.5542  70.6454  68.8974  68.9939  69.0900  69.1857

 M, (1/n)           2.016    2.016    2.016    2.016    2.016    2.016    2.016    2.016
 (dLV/dLP)t      -1.00001 -1.00001 -1.00001 -1.00001 -1.00000 -1.00000 -1.00000 -1.00000
 (dLV/dLT)p        1.0002   1.0002   1.0003   1.0003   1.0001   1.0001   1.0001   1.0001
 Cp, KJ/(KG)(K)   16.6836  16.7047  16.7258  16.7469  16.4524  16.4733  16.4942  16.5151
 GAMMAs            1.3286   1.3281   1.3275   1.3270   1.3346   1.3341   1.3335   1.3330
 SON VEL,M/SEC     3149.4   3157.4   3165.5   3173.5   3059.1   3067.4   3075.8   3084.0

 TRANSPORT PROPERTIES (GASES ONLY)
   CONDUCTIVITY IN UNITS OF MILLIWATTS/(CM)(K)

 VISC,MILLIPOISE  0.31163  0.31287  0.31411  0.31535  0.29794  0.29919  0.30043  0.30168

  WITH EQUILIBRIUM REACTIONS

 Cp, KJ/(KG)(K)   16.6836  16.7047  16.7258  16.7469  16.4524  16.4733  16.4942  16.5151
 CONDUCTIVITY      7.4033   7.4424   7.4816   7.5210   6.9805   7.0183   7.0563   7.0943
 PRANDTL NUMBER    0.7023   0.7023   0.7022   0.7022   0.7022   0.7022   0.7023   0.7023

  WITH FROZEN REACTIONS

 Cp, KJ/(KG)(K)   16.6566  16.6756  16.6945  16.7134  16.4414  16.4614  16.4813  16.5011
 CONDUCTIVITY      7.3806   7.4179   7.4552   7.4925   6.9717   7.0088   7.0459   7.0830
 PRANDTL NUMBER    0.7033   0.7033   0.7034   0.7034   0.7026   0.7027   0.7028   0.7028

 MASS FRACTIONS

 *H               0.00001  0.00002  0.00002  0.00002  0.00001  0.00001  0.00001  0.00001
 *H2              0.99999  0.99998  0.99998  0.99998  0.99999  0.99999  0.99999  0.99999

  * THERMODYNAMIC PROPERTIES FITTED TO 20000.K

 NOTE. WEIGHT FRACTION OF FUEL IN TOTAL FUELS AND OF OXIDANT IN TOTAL OXIDANTS









               THERMODYNAMIC EQUILIBRIUM PROPERTIES AT ASSIGNED

                           TEMPERATURE AND PRESSURE

 CASE =                

             REACTANT                    WT FRACTION      ENERGY      TEMP
                                          (SEE NOTE)     KJ/KG-MOL      K  
 FUEL        H2                           1.0000000         0.000      0.000
 OXIDANT     H2                           1.0000000         0.000      0.000

 O/F=    1.00000  %FUEL= 50.000000  R,EQ.RATIO= 0.000000  PHI,EQ.RATIO=-1.000000

 THERMODYNAMIC PROPERTIES

 P, BAR            200.00   200.00   200.00   200.00   200.00   200.00   200.00   200.00
 T, K             1740.00  1750.00  1760.00  1770.00  1780.00  1790.00  1800.00  1810.00
 RHO, KG/CU M    2.7868 0 2.7709 0 2.7551 0 2.7396 0 2.7242 0 2.7089 0 2.6939 0 2.6790 0
 H, KJ/KG         21908.8  22074.3  22240.0  22405.8  22571.9  22738.2  22904.7  23071.5
 U, KJ/KG         14732.1  14856.3  14980.8  15105.4  15230.2  15355.3  15480.5  15606.0
 G, KJ/KG        -98640.0 -99333.3-100027.5-100722.7-101418.8-102115.8-102813.8-103512.7
 S, KJ/(KG)(K)    69.2809  69.3758  69.4702  69.5641  69.6577  69.7509  69.8436  69.9360

 M, (1/n)           2.016    2.016    2.016    2.016    2.016    2.016    2.016    2.016
 (dLV/dLP)t      -1.00000 -1.00000 -1.00000 -1.00000 -1.00000 -1.00000 -1.00001 -1.00001
 (dLV/dLT)p        1.0001   1.0001   1.0001   1.0002   1.0002   1.0002   1.0002   1.0002
 Cp, KJ/(KG)(K)   16.5360  16.5569  16.5778  16.5986  16.6195  16.6404  16.6613  16.6822
 GAMMAs            1.3324   1.3319   1.3313   1.3308   1.3302   1.3297   1.3292   1.3286
 SON VEL,M/SEC     3092.3   3100.5   3108.7   3116.9   3125.1   3133.2   3141.3   3149.4

 TRANSPORT PROPERTIES (GASES ONLY)
   CONDUCTIVITY IN UNITS OF MILLIWATTS/(CM)(K)

 VISC,MILLIPOISE  0.30293  0.30417  0.30542  0.30666  0.30791  0.30915  0.31039  0.31163

  WITH EQUILIBRIUM REACTIONS

 Cp, KJ/(KG)(K)   16.5360  16.5569  16.5778  16.5986  16.6195  16.6404  16.6613  16.6822
 CONDUCTIVITY      7.1324   7.1706   7.2090   7.2474   7.2859   7.3245   7.3633   7.4021
 PRANDTL NUMBER    0.7023   0.7023   0.7023   0.7024   0.7024   0.7023   0.7023   0.7023

  WITH FROZEN REACTIONS

 Cp, KJ/(KG)(K)   16.5209  16.5405  16.5601  16.5795  16.5989  16.6182  16.6374  16.6566
 CONDUCTIVITY      7.1201   7.1573   7.1945   7.2317   7.2689   7.3061   7.3433   7.3806
 PRANDTL NUMBER    0.7029   0.7029   0.7030   0.7031   0.7031   0.7032   0.7032   0.7033

 MASS FRACTIONS

 *H               0.00001  0.00001  0.00001  0.00001  0.00001  0.00001  0.00001  0.00001
 *H2              0.99999  0.99999  0.99999  0.99999  0.99999  0.99999  0.99999  0.99999

  * THERMODYNAMIC PROPERTIES FITTED TO 20000.K

 NOTE. WEIGHT FRACTION OF FUEL IN TOTAL FUELS AND OF OXIDANT IN TOTAL OXIDANTS









               THERMODYNAMIC EQUILIBRIUM PROPERTIES AT ASSIGNED

                           TEMPERATURE AND PRESSURE

 CASE =                

             REACTANT                    WT FRACTION      ENERGY      TEMP
                                          (SEE NOTE)     KJ/KG-MOL      K  
 FUEL        H2                           1.0000000         0.000      0.000
 OXIDANT     H2                           1.0000000         0.000      0.000

 O/F=    1.00000  %FUEL= 50.000000  R,EQ.RATIO= 0.000000  PHI,EQ.RATIO=-1.000000

 THERMODYNAMIC PROPERTIES

 P, BAR            200.00   200.00   200.00   225.00   225.00   225.00   225.00   225.00
 T, K             1820.00  1830.00  1840.00  1700.00  1710.00  1720.00  1730.00  1740.00
 RHO, KG/CU M    2.6643 0 2.6497 0 2.6353 0 3.2089 0 3.1902 0 3.1716 0 3.1533 0 3.1352 0
 H, KJ/KG         23238.4  23405.5  23572.9  21249.0  21413.6  21578.4  21743.5  21908.7
 U, KJ/KG         15731.7  15857.6  15983.7  14237.3  14360.7  14484.2  14608.0  14732.0
 G, KJ/KG       -104212.5-104913.3-105614.9 -95050.6 -95735.2 -96420.7 -97107.2 -97794.7
 S, KJ/(KG)(K)    70.0280  70.1196  70.2108  68.4115  68.5081  68.6042  68.6998  68.7951

 M, (1/n)           2.016    2.016    2.016    2.016    2.016    2.016    2.016    2.016
 (dLV/dLP)t      -1.00001 -1.00001 -1.00001 -1.00000 -1.00000 -1.00000 -1.00000 -1.00000
 (dLV/dLT)p        1.0002   1.0002   1.0003   1.0001   1.0001   1.0001   1.0001   1.0001
 Cp, KJ/(KG)(K)   16.7032  16.7242  16.7452  16.4518  16.4726  16.4935  16.5143  16.5351
 GAMMAs            1.3281   1.3276   1.3270   1.3347   1.3341   1.3335   1.3330   1.3324
 SON VEL,M/SEC     3157.5   3165.5   3173.5   3059.1   3067.5   3075.8   3084.1   3092.3

 TRANSPORT PROPERTIES (GASES ONLY)
   CONDUCTIVITY IN UNITS OF MILLIWATTS/(CM)(K)

 VISC,MILLIPOISE  0.31287  0.31411  0.31535  0.29794  0.29919  0.30043  0.30168  0.30293

  WITH EQUILIBRIUM REACTIONS

 Cp, KJ/(KG)(K)   16.7032  16.7242  16.7452  16.4518  16.4726  16.4935  16.5143  16.5351
 CONDUCTIVITY      7.4411   7.4802   7.5195   6.9800   7.0178   7.0557   7.0937   7.1317
 PRANDTL NUMBER    0.7023   0.7023   0.7023   0.7022   0.7023   0.7023   0.7023   0.7023

  WITH FROZEN REACTIONS

 Cp, KJ/(KG)(K)   16.6756  16.6945  16.7134  16.4414  16.4614  16.4813  16.5011  16.5209
 CONDUCTIVITY      7.4179   7.4552   7.4925   6.9717   7.0088   7.0459   7.0830   7.1201
 PRANDTL NUMBER    0.7033   0.7034   0.7034   0.7026   0.7027   0.7028   0.7028   0.7029

 MASS FRACTIONS

 *H               0.00001  0.00002  0.00002  0.00000  0.00001  0.00001  0.00001  0.00001
 *H2              0.99999  0.99998  0.99998  1.00000  0.99999  0.99999  0.99999  0.99999

  * THERMODYNAMIC PROPERTIES FITTED TO 20000.K

 NOTE. WEIGHT FRACTION OF FUEL IN TOTAL FUELS AND OF OXIDANT IN TOTAL OXIDANTS









               THERMODYNAMIC EQUILIBRIUM PROPERTIES AT ASSIGNED

                           TEMPERATURE AND PRESSURE

 CASE =                

             REACTANT                    WT FRACTION      ENERGY      TEMP
                                          (SEE NOTE)     KJ/KG-MOL      K  
 FUEL        H2                           1.0000000         0.000      0.000
 OXIDANT     H2                           1.0000000         0.000      0.000

 O/F=    1.00000  %FUEL= 50.000000  R,EQ.RATIO= 0.000000  PHI,EQ.RATIO=-1.000000

 THERMODYNAMIC PROPERTIES

 P, BAR            225.00   225.00   225.00   225.00   225.00   225.00   225.00   225.00
 T, K             1750.00  1760.00  1770.00  1780.00  1790.00  1800.00  1810.00  1820.00
 RHO, KG/CU M    3.1172 0 3.0995 0 3.0820 0 3.0647 0 3.0476 0 3.0306 0 3.0139 0 2.9973 0
 H, KJ/KG         22074.2  22239.8  22405.7  22571.8  22738.1  22904.6  23071.3  23238.2
 U, KJ/KG         14856.2  14980.7  15105.3  15230.1  15355.1  15480.4  15605.8  15731.5
 G, KJ/KG        -98483.1 -99172.5 -99862.8-100554.1-101246.3-101939.4-102633.4-103328.4
 S, KJ/(KG)(K)    68.8899  68.9843  69.0783  69.1718  69.2650  69.3577  69.4501  69.5421

 M, (1/n)           2.016    2.016    2.016    2.016    2.016    2.016    2.016    2.016
 (dLV/dLP)t      -1.00000 -1.00000 -1.00000 -1.00000 -1.00000 -1.00000 -1.00001 -1.00001
 (dLV/dLT)p        1.0001   1.0001   1.0001   1.0002   1.0002   1.0002   1.0002   1.0002
 Cp, KJ/(KG)(K)   16.5560  16.5768  16.5975  16.6183  16.6391  16.6599  16.6808  16.7016
 GAMMAs            1.3319   1.3313   1.3308   1.3303   1.3297   1.3292   1.3286   1.3281
 SON VEL,M/SEC     3100.6   3108.8   3117.0   3125.1   3133.2   3141.4   3149.4   3157.5

 TRANSPORT PROPERTIES (GASES ONLY)
   CONDUCTIVITY IN UNITS OF MILLIWATTS/(CM)(K)

 VISC,MILLIPOISE  0.30417  0.30542  0.30666  0.30791  0.30915  0.31039  0.31163  0.31287

  WITH EQUILIBRIUM REACTIONS

 Cp, KJ/(KG)(K)   16.5560  16.5767  16.5975  16.6183  16.6391  16.6599  16.6808  16.7016
 CONDUCTIVITY      7.1699   7.2081   7.2465   7.2849   7.3235   7.3621   7.4009   7.4398
 PRANDTL NUMBER    0.7024   0.7024   0.7024   0.7024   0.7024   0.7024   0.7024   0.7024

  WITH FROZEN REACTIONS

 Cp, KJ/(KG)(K)   16.5405  16.5601  16.5795  16.5989  16.6182  16.6374  16.6565  16.6756
 CONDUCTIVITY      7.1573   7.1945   7.2317   7.2689   7.3061   7.3433   7.3806   7.4179
 PRANDTL NUMBER    0.7029   0.7030   0.7031   0.7031   0.7032   0.7032   0.7033   0.7033

 MASS FRACTIONS

 *H               0.00001  0.00001  0.00001  0.00001  0.00001  0.00001  0.00001  0.00001
 *H2              0.99999  0.99999  0.99999  0.99999  0.99999  0.99999  0.99999  0.99999

  * THERMODYNAMIC PROPERTIES FITTED TO 20000.K

 NOTE. WEIGHT FRACTION OF FUEL IN TOTAL FUELS AND OF OXIDANT IN TOTAL OXIDANTS









               THERMODYNAMIC EQUILIBRIUM PROPERTIES AT ASSIGNED

                           TEMPERATURE AND PRESSURE

 CASE =                

             REACTANT                    WT FRACTION      ENERGY      TEMP
                                          (SEE NOTE)     KJ/KG-MOL      K  
 FUEL        H2                           1.0000000         0.000      0.000
 OXIDANT     H2                           1.0000000         0.000      0.000

 O/F=    1.00000  %FUEL= 50.000000  R,EQ.RATIO= 0.000000  PHI,EQ.RATIO=-1.000000

 THERMODYNAMIC PROPERTIES

 P, BAR            225.00   225.00   250.00   250.00   250.00   250.00   250.00   250.00
 T, K             1830.00  1840.00  1700.00  1710.00  1720.00  1730.00  1740.00  1750.00
 RHO, KG/CU M    2.9809 0 2.9647 0 3.5655 0 3.5446 0 3.5240 0 3.5036 0 3.4835 0 3.4636 0
 H, KJ/KG         23405.3  23572.6  21248.9  21413.5  21578.4  21743.4  21908.6  22074.1
 U, KJ/KG         15857.4  15983.4  14237.2  14360.6  14484.2  14608.0  14732.0  14856.2
 G, KJ/KG       -104024.2-104721.0 -94311.8 -94992.1 -95673.3 -96355.4 -97038.6 -97722.7
 S, KJ/(KG)(K)    69.6336  69.7248  67.9769  68.0735  68.1696  68.2652  68.3605  68.4553

 M, (1/n)           2.016    2.016    2.016    2.016    2.016    2.016    2.016    2.016
 (dLV/dLP)t      -1.00001 -1.00001 -1.00000 -1.00000 -1.00000 -1.00000 -1.00000 -1.00000
 (dLV/dLT)p        1.0002   1.0002   1.0001   1.0001   1.0001   1.0001   1.0001   1.0001
 Cp, KJ/(KG)(K)   16.7225  16.7433  16.4512  16.4721  16.4929  16.5137  16.5344  16.5552
 GAMMAs            1.3276   1.3271   1.3347   1.3341   1.3335   1.3330   1.3324   1.3319
 SON VEL,M/SEC     3165.5   3173.5   3059.1   3067.5   3075.8   3084.1   3092.3   3100.6

 TRANSPORT PROPERTIES (GASES ONLY)
   CONDUCTIVITY IN UNITS OF MILLIWATTS/(CM)(K)

 VISC,MILLIPOISE  0.31411  0.31535  0.29794  0.29918  0.30043  0.30168  0.30293  0.30417

  WITH EQUILIBRIUM REACTIONS

 Cp, KJ/(KG)(K)   16.7225  16.7433  16.4512  16.4721  16.4929  16.5137  16.5344  16.5552
 CONDUCTIVITY      7.4788   7.5179   6.9795   7.0173   7.0552   7.0931   7.1311   7.1692
 PRANDTL NUMBER    0.7023   0.7023   0.7023   0.7023   0.7023   0.7024   0.7024   0.7024

  WITH FROZEN REACTIONS

 Cp, KJ/(KG)(K)   16.6945  16.7134  16.4414  16.4614  16.4813  16.5011  16.5209  16.5405
 CONDUCTIVITY      7.4552   7.4925   6.9717   7.0088   7.0459   7.0830   7.1201   7.1573
 PRANDTL NUMBER    0.7034   0.7034   0.7026   0.7027   0.7028   0.7028   0.7029   0.7029

 MASS FRACTIONS

 *H               0.00002  0.00002  0.00000  0.00001  0.00001  0.00001  0.00001  0.00001
 *H2              0.99998  0.99998  1.00000  0.99999  0.99999  0.99999  0.99999  0.99999

  * THERMODYNAMIC PROPERTIES FITTED TO 20000.K

 NOTE. WEIGHT FRACTION OF FUEL IN TOTAL FUELS AND OF OXIDANT IN TOTAL OXIDANTS









               THERMODYNAMIC EQUILIBRIUM PROPERTIES AT ASSIGNED

                           TEMPERATURE AND PRESSURE

 CASE =                

             REACTANT                    WT FRACTION      ENERGY      TEMP
                                          (SEE NOTE)     KJ/KG-MOL      K  
 FUEL        H2                           1.0000000         0.000      0.000
 OXIDANT     H2                           1.0000000         0.000      0.000

 O/F=    1.00000  %FUEL= 50.000000  R,EQ.RATIO= 0.000000  PHI,EQ.RATIO=-1.000000

 THERMODYNAMIC PROPERTIES

 P, BAR            250.00   250.00   250.00   250.00   250.00   250.00   250.00   250.00
 T, K             1760.00  1770.00  1780.00  1790.00  1800.00  1810.00  1820.00  1830.00
 RHO, KG/CU M    3.4439 0 3.4245 0 3.4052 0 3.3862 0 3.3674 0 3.3488 0 3.3304 0 3.3122 0
 H, KJ/KG         22239.7  22405.6  22571.7  22738.0  22904.4  23071.1  23238.0  23405.1
 U, KJ/KG         14980.6  15105.2  15230.0  15355.0  15480.3  15605.7  15731.3  15857.2
 G, KJ/KG        -98407.7 -99093.6 -99780.5-100468.4-101157.2-101846.8-102537.5-103229.0
 S, KJ/(KG)(K)    68.5497  68.6436  68.7372  68.8304  68.9231  69.0155  69.1074  69.1990

 M, (1/n)           2.016    2.016    2.016    2.016    2.016    2.016    2.016    2.016
 (dLV/dLP)t      -1.00000 -1.00000 -1.00000 -1.00000 -1.00000 -1.00001 -1.00001 -1.00001
 (dLV/dLT)p        1.0001   1.0001   1.0001   1.0002   1.0002   1.0002   1.0002   1.0002
 Cp, KJ/(KG)(K)   16.5759  16.5966  16.6173  16.6381  16.6588  16.6795  16.7003  16.7210
 GAMMAs            1.3314   1.3308   1.3303   1.3297   1.3292   1.3287   1.3281   1.3276
 SON VEL,M/SEC     3108.8   3117.0   3125.1   3133.3   3141.4   3149.5   3157.5   3165.6

 TRANSPORT PROPERTIES (GASES ONLY)
   CONDUCTIVITY IN UNITS OF MILLIWATTS/(CM)(K)

 VISC,MILLIPOISE  0.30542  0.30666  0.30791  0.30915  0.31039  0.31163  0.31287  0.31411

  WITH EQUILIBRIUM REACTIONS

 Cp, KJ/(KG)(K)   16.5759  16.5966  16.6173  16.6381  16.6588  16.6795  16.7003  16.7210
 CONDUCTIVITY      7.2074   7.2457   7.2841   7.3226   7.3611   7.3998   7.4386   7.4776
 PRANDTL NUMBER    0.7024   0.7024   0.7024   0.7024   0.7024   0.7024   0.7024   0.7024

  WITH FROZEN REACTIONS

 Cp, KJ/(KG)(K)   16.5601  16.5795  16.5989  16.6182  16.6374  16.6565  16.6756  16.6945
 CONDUCTIVITY      7.1945   7.2316   7.2689   7.3061   7.3433   7.3806   7.4179   7.4552
 PRANDTL NUMBER    0.7030   0.7031   0.7031   0.7032   0.7032   0.7033   0.7033   0.7034

 MASS FRACTIONS

 *H               0.00001  0.00001  0.00001  0.00001  0.00001  0.00001  0.00001  0.00001
 *H2              0.99999  0.99999  0.99999  0.99999  0.99999  0.99999  0.99999  0.99999

  * THERMODYNAMIC PROPERTIES FITTED TO 20000.K

 NOTE. WEIGHT FRACTION OF FUEL IN TOTAL FUELS AND OF OXIDANT IN TOTAL OXIDANTS









               THERMODYNAMIC EQUILIBRIUM PROPERTIES AT ASSIGNED

                           TEMPERATURE AND PRESSURE

 CASE =                

             REACTANT                    WT FRACTION      ENERGY      TEMP
                                          (SEE NOTE)     KJ/KG-MOL      K  
 FUEL        H2                           1.0000000         0.000      0.000
 OXIDANT     H2                           1.0000000         0.000      0.000

 O/F=    1.00000  %FUEL= 50.000000  R,EQ.RATIO= 0.000000  PHI,EQ.RATIO=-1.000000

 THERMODYNAMIC PROPERTIES

 P, BAR            250.00
 T, K             1840.00
 RHO, KG/CU M    3.2942 0
 H, KJ/KG         23572.5
 U, KJ/KG         15983.3
 G, KJ/KG       -103921.4
 S, KJ/(KG)(K)    69.2902

 M, (1/n)           2.016
 (dLV/dLP)t      -1.00001
 (dLV/dLT)p        1.0002
 Cp, KJ/(KG)(K)   16.7418
 GAMMAs            1.3271
 SON VEL,M/SEC     3173.6

 TRANSPORT PROPERTIES (GASES ONLY)
   CONDUCTIVITY IN UNITS OF MILLIWATTS/(CM)(K)

 VISC,MILLIPOISE  0.31535

  WITH EQUILIBRIUM REACTIONS

 Cp, KJ/(KG)(K)   16.7418
 CONDUCTIVITY      7.5166
 PRANDTL NUMBER    0.7024

  WITH FROZEN REACTIONS

 Cp, KJ/(KG)(K)   16.7134
 CONDUCTIVITY      7.4925
 PRANDTL NUMBER    0.7034

 MASS FRACTIONS

 *H               0.00002
 *H2              0.99998

  * THERMODYNAMIC PROPERTIES FITTED TO 20000.K

 NOTE. WEIGHT FRACTION OF FUEL IN TOTAL FUELS AND OF OXIDANT IN TOTAL OXIDANTS



  
