
 *******************************************************************************

         NASA-GLENN CHEMICAL EQUILIBRIUM PROGRAM CEA2, MAY 21, 2004
                   BY  BONNIE MCBRIDE AND SANFORD GORDON
      REFS: NASA RP-1311, PART I, 1994 AND NASA RP-1311, PART II, 1996

 *******************************************************************************



  prob tp ions
  p,bar= 0.0225,0.025,0.028,0.031,0.035,0.039,0.044,0.049,0.054,0.06,0.067,0.074,
 0.0825,0.091,0.1
  t,k= 1700,1710,1720,1730,1740,1750,1760,1770,1780,1790,1800,1810,1820,1830,1840
  
  
  reac
  fuel H2                wt%=100.0000
  oxid H2                wt%=100.0000
  
  output short
  
  output massf
  
  output siunits
  
  output transport
  
 end





               THERMODYNAMIC EQUILIBRIUM PROPERTIES AT ASSIGNED

                           TEMPERATURE AND PRESSURE

 CASE =                

             REACTANT                    WT FRACTION      ENERGY      TEMP
                                          (SEE NOTE)     KJ/KG-MOL      K  
 FUEL        H2                           1.0000000         0.000      0.000
 OXIDANT     H2                           1.0000000         0.000      0.000

 O/F=    1.00000  %FUEL= 50.000000  R,EQ.RATIO= 0.000000  PHI,EQ.RATIO=-1.000000

 THERMODYNAMIC PROPERTIES

 P, BAR           0.02250  0.02250  0.02250  0.02250  0.02250  0.02250  0.02250  0.02250
 T, K             1700.00  1710.00  1720.00  1730.00  1740.00  1750.00  1760.00  1770.00
 RHO, KG/CU M    3.2074-4 3.1885-4 3.1697-4 3.1512-4 3.1329-4 3.1148-4 3.0969-4 3.0792-4
 H, KJ/KG         21358.1  21533.3  21709.8  21887.4  22066.3  22246.5  22428.1  22611.1
 U, KJ/KG         14343.0  14476.6  14611.4  14747.4  14884.5  15023.0  15162.8  15304.0
 G, KJ/KG       -159637.7-160702.4-161768.6-162835.8-163904.1-164973.4-166043.8-167115.1
 S, KJ/(KG)(K)   106.4681 106.5706 106.6735 106.7764 106.8795 106.9828 107.0863 107.1900

 M, (1/n)           2.015    2.015    2.015    2.015    2.014    2.014    2.014    2.014
 (dLV/dLP)t      -1.00024 -1.00027 -1.00030 -1.00032 -1.00035 -1.00039 -1.00042 -1.00046
 (dLV/dLT)p        1.0079   1.0086   1.0093   1.0102   1.0111   1.0120   1.0131   1.0142
 Cp, KJ/(KG)(K)   17.4782  17.5868  17.7017  17.8232  17.9518  18.0877  18.2315  18.3834
 GAMMAs            1.3151   1.3131   1.3110   1.3089   1.3067   1.3044   1.3020   1.2996
 SON VEL,M/SEC     3037.3   3044.0   3050.6   3057.0   3063.3   3069.5   3075.6   3081.6

 TRANSPORT PROPERTIES (GASES ONLY)
   CONDUCTIVITY IN UNITS OF MILLIWATTS/(CM)(K)

 VISC,MILLIPOISE  0.29809  0.29935  0.30062  0.30188  0.30315  0.30442  0.30569  0.30696

  WITH EQUILIBRIUM REACTIONS

 Cp, KJ/(KG)(K)   17.4782  17.5868  17.7017  17.8232  17.9518  18.0877  18.2315  18.3834
 CONDUCTIVITY      7.8012   7.9131   8.0313   8.1557   8.2867   8.4247   8.5701   8.7234
 PRANDTL NUMBER    0.6678   0.6653   0.6626   0.6597   0.6567   0.6536   0.6503   0.6469

  WITH FROZEN REACTIONS

 Cp, KJ/(KG)(K)   16.4435  16.4636  16.4837  16.5038  16.5238  16.5436  16.5635  16.5832
 CONDUCTIVITY      6.9784   7.0156   7.0534   7.0913   7.1293   7.1673   7.2054   7.2437
 PRANDTL NUMBER    0.7024   0.7025   0.7025   0.7026   0.7026   0.7027   0.7027   0.7027

 MASS FRACTIONS

 *H               0.00049  0.00054  0.00059  0.00065  0.00071  0.00078  0.00085  0.00093
 *H2              0.99951  0.99946  0.99941  0.99935  0.99929  0.99922  0.99915  0.99907

  * THERMODYNAMIC PROPERTIES FITTED TO 20000.K

 NOTE. WEIGHT FRACTION OF FUEL IN TOTAL FUELS AND OF OXIDANT IN TOTAL OXIDANTS









               THERMODYNAMIC EQUILIBRIUM PROPERTIES AT ASSIGNED

                           TEMPERATURE AND PRESSURE

 CASE =                

             REACTANT                    WT FRACTION      ENERGY      TEMP
                                          (SEE NOTE)     KJ/KG-MOL      K  
 FUEL        H2                           1.0000000         0.000      0.000
 OXIDANT     H2                           1.0000000         0.000      0.000

 O/F=    1.00000  %FUEL= 50.000000  R,EQ.RATIO= 0.000000  PHI,EQ.RATIO=-1.000000

 THERMODYNAMIC PROPERTIES

 P, BAR           0.02250  0.02250  0.02250  0.02250  0.02250  0.02250  0.02250  0.02500
 T, K             1780.00  1790.00  1800.00  1810.00  1820.00  1830.00  1840.00  1700.00
 RHO, KG/CU M    3.0616-4 3.0443-4 3.0270-4 3.0100-4 2.9931-4 2.9764-4 2.9599-4 3.5638-4
 H, KJ/KG         22795.7  22982.0  23170.1  23359.9  23551.7  23745.6  23941.7  21352.4
 U, KJ/KG         15446.7  15591.1  15737.1  15884.9  16034.5  16186.2  16340.0  14337.4
 G, KJ/KG       -168187.6-169261.0-170335.5-171411.1-172487.7-173565.4-174644.1-158898.1
 S, KJ/(KG)(K)   107.2940 107.3984 107.5031 107.6083 107.7140 107.8202 107.9270 106.0297

 M, (1/n)           2.014    2.014    2.013    2.013    2.013    2.013    2.013    2.015
 (dLV/dLP)t      -1.00050 -1.00055 -1.00060 -1.00065 -1.00070 -1.00076 -1.00083 -1.00023
 (dLV/dLT)p        1.0154   1.0167   1.0180   1.0195   1.0211   1.0227   1.0245   1.0074
 Cp, KJ/(KG)(K)   18.5441  18.7138  18.8932  19.0826  19.2825  19.4936  19.7162  17.4249
 GAMMAs            1.2971   1.2945   1.2919   1.2892   1.2864   1.2835   1.2806   1.3160
 SON VEL,M/SEC     3087.4   3093.2   3098.8   3104.3   3109.6   3114.9   3120.0   3038.4

 TRANSPORT PROPERTIES (GASES ONLY)
   CONDUCTIVITY IN UNITS OF MILLIWATTS/(CM)(K)

 VISC,MILLIPOISE  0.30823  0.30950  0.31078  0.31205  0.31333  0.31461  0.31590  0.29808

  WITH EQUILIBRIUM REACTIONS

 Cp, KJ/(KG)(K)   18.5441  18.7138  18.8932  19.0826  19.2825  19.4936  19.7162  17.4249
 CONDUCTIVITY      8.8849   9.0552   9.2348   9.4242   9.6238   9.8344  10.0564   7.7583
 PRANDTL NUMBER    0.6433   0.6396   0.6358   0.6319   0.6278   0.6236   0.6193   0.6695

  WITH FROZEN REACTIONS

 Cp, KJ/(KG)(K)   16.6029  16.6226  16.6421  16.6616  16.6811  16.7005  16.7198  16.4434
 CONDUCTIVITY      7.2820   7.3205   7.3591   7.3978   7.4366   7.4756   7.5147   6.9776
 PRANDTL NUMBER    0.7028   0.7028   0.7028   0.7028   0.7028   0.7028   0.7029   0.7024

 MASS FRACTIONS

 *H               0.00101  0.00110  0.00120  0.00130  0.00141  0.00153  0.00166  0.00047
 *H2              0.99899  0.99890  0.99880  0.99870  0.99859  0.99847  0.99834  0.99953

  * THERMODYNAMIC PROPERTIES FITTED TO 20000.K

 NOTE. WEIGHT FRACTION OF FUEL IN TOTAL FUELS AND OF OXIDANT IN TOTAL OXIDANTS









               THERMODYNAMIC EQUILIBRIUM PROPERTIES AT ASSIGNED

                           TEMPERATURE AND PRESSURE

 CASE =                

             REACTANT                    WT FRACTION      ENERGY      TEMP
                                          (SEE NOTE)     KJ/KG-MOL      K  
 FUEL        H2                           1.0000000         0.000      0.000
 OXIDANT     H2                           1.0000000         0.000      0.000

 O/F=    1.00000  %FUEL= 50.000000  R,EQ.RATIO= 0.000000  PHI,EQ.RATIO=-1.000000

 THERMODYNAMIC PROPERTIES

 P, BAR           0.02500  0.02500  0.02500  0.02500  0.02500  0.02500  0.02500  0.02500
 T, K             1710.00  1720.00  1730.00  1740.00  1750.00  1760.00  1770.00  1780.00
 RHO, KG/CU M    3.5428-4 3.5221-4 3.5015-4 3.4812-4 3.4611-4 3.4412-4 3.4215-4 3.4020-4
 H, KJ/KG         21527.1  21703.0  21879.9  22058.1  22237.5  22418.3  22600.5  22784.1
 U, KJ/KG         14470.6  14604.8  14740.2  14876.6  15014.3  15153.3  15293.7  15435.5
 G, KJ/KG       -159958.9-161020.7-162083.6-163147.5-164212.4-165278.3-166345.3-167413.3
 S, KJ/(KG)(K)   106.1322 106.2347 106.3373 106.4400 106.5428 106.6458 106.7490 106.8525

 M, (1/n)           2.015    2.015    2.015    2.015    2.014    2.014    2.014    2.014
 (dLV/dLP)t      -1.00026 -1.00028 -1.00031 -1.00034 -1.00037 -1.00040 -1.00044 -1.00048
 (dLV/dLT)p        1.0081   1.0089   1.0097   1.0105   1.0114   1.0124   1.0135   1.0146
 Cp, KJ/(KG)(K)   17.5290  17.6390  17.7554  17.8783  18.0083  18.1457  18.2909  18.4443
 GAMMAs            1.3141   1.3121   1.3100   1.3079   1.3057   1.3034   1.3010   1.2986
 SON VEL,M/SEC     3045.1   3051.8   3058.3   3064.7   3071.0   3077.2   3083.2   3089.2

 TRANSPORT PROPERTIES (GASES ONLY)
   CONDUCTIVITY IN UNITS OF MILLIWATTS/(CM)(K)

 VISC,MILLIPOISE  0.29934  0.30061  0.30187  0.30314  0.30441  0.30567  0.30694  0.30821

  WITH EQUILIBRIUM REACTIONS

 Cp, KJ/(KG)(K)   17.5290  17.6390  17.7554  17.8783  18.0083  18.1457  18.2909  18.4443
 CONDUCTIVITY      7.8667   7.9808   8.1007   8.2269   8.3597   8.4996   8.6469   8.8021
 PRANDTL NUMBER    0.6670   0.6644   0.6617   0.6588   0.6557   0.6526   0.6493   0.6458

  WITH FROZEN REACTIONS

 Cp, KJ/(KG)(K)   16.4635  16.4836  16.5036  16.5236  16.5435  16.5633  16.5831  16.6027
 CONDUCTIVITY      7.0153   7.0530   7.0909   7.1288   7.1668   7.2049   7.2431   7.2814
 PRANDTL NUMBER    0.7025   0.7025   0.7026   0.7026   0.7027   0.7027   0.7027   0.7028

 MASS FRACTIONS

 *H               0.00051  0.00056  0.00062  0.00067  0.00074  0.00080  0.00088  0.00096
 *H2              0.99949  0.99944  0.99938  0.99933  0.99926  0.99920  0.99912  0.99904

  * THERMODYNAMIC PROPERTIES FITTED TO 20000.K

 NOTE. WEIGHT FRACTION OF FUEL IN TOTAL FUELS AND OF OXIDANT IN TOTAL OXIDANTS









               THERMODYNAMIC EQUILIBRIUM PROPERTIES AT ASSIGNED

                           TEMPERATURE AND PRESSURE

 CASE =                

             REACTANT                    WT FRACTION      ENERGY      TEMP
                                          (SEE NOTE)     KJ/KG-MOL      K  
 FUEL        H2                           1.0000000         0.000      0.000
 OXIDANT     H2                           1.0000000         0.000      0.000

 O/F=    1.00000  %FUEL= 50.000000  R,EQ.RATIO= 0.000000  PHI,EQ.RATIO=-1.000000

 THERMODYNAMIC PROPERTIES

 P, BAR           0.02500  0.02500  0.02500  0.02500  0.02500  0.02500  0.02800  0.02800
 T, K             1790.00  1800.00  1810.00  1820.00  1830.00  1840.00  1700.00  1710.00
 RHO, KG/CU M    3.3827-4 3.3636-4 3.3447-4 3.3259-4 3.3074-4 3.2890-4 3.9916-4 3.9681-4
 H, KJ/KG         22969.4  23156.3  23345.0  23535.5  23728.0  23922.5  21346.6  21520.8
 U, KJ/KG         15578.8  15723.8  15870.4  16018.8  16169.2  16321.5  14331.9  14464.5
 G, KJ/KG       -168482.3-169552.4-170623.5-171695.7-172768.9-173843.2-158103.1-159159.2
 S, KJ/(KG)(K)   106.9563 107.0604 107.1649 107.2699 107.3754 107.4814 105.5587 105.6608

 M, (1/n)           2.014    2.014    2.013    2.013    2.013    2.013    2.015    2.015
 (dLV/dLP)t      -1.00052 -1.00057 -1.00062 -1.00067 -1.00073 -1.00079 -1.00022 -1.00024
 (dLV/dLT)p        1.0158   1.0171   1.0185   1.0200   1.0216   1.0233   1.0070   1.0077
 Cp, KJ/(KG)(K)   18.6063  18.7774  18.9581  19.1487  19.3499  19.5621  17.3707  17.4702
 GAMMAs            1.2961   1.2935   1.2909   1.2882   1.2854   1.2826   1.3170   1.3151
 SON VEL,M/SEC     3095.0   3100.7   3106.3   3111.7   3117.1   3122.3   3039.4   3046.3

 TRANSPORT PROPERTIES (GASES ONLY)
   CONDUCTIVITY IN UNITS OF MILLIWATTS/(CM)(K)

 VISC,MILLIPOISE  0.30948  0.31076  0.31203  0.31331  0.31459  0.31587  0.29807  0.29933

  WITH EQUILIBRIUM REACTIONS

 Cp, KJ/(KG)(K)   18.6063  18.7774  18.9581  19.1487  19.3499  19.5621  17.3707  17.4702
 CONDUCTIVITY      8.9655   9.1378   9.3194   9.5108   9.7125   9.9250   7.7149   7.8195
 PRANDTL NUMBER    0.6423   0.6386   0.6348   0.6308   0.6267   0.6226   0.6711   0.6688

  WITH FROZEN REACTIONS

 Cp, KJ/(KG)(K)   16.6223  16.6419  16.6614  16.6808  16.7002  16.7195  16.4433  16.4634
 CONDUCTIVITY      7.3198   7.3583   7.3969   7.4357   7.4746   7.5136   6.9773   7.0149
 PRANDTL NUMBER    0.7028   0.7028   0.7028   0.7029   0.7029   0.7029   0.7025   0.7025

 MASS FRACTIONS

 *H               0.00104  0.00113  0.00123  0.00134  0.00145  0.00158  0.00044  0.00048
 *H2              0.99896  0.99887  0.99877  0.99866  0.99855  0.99842  0.99956  0.99952

  * THERMODYNAMIC PROPERTIES FITTED TO 20000.K

 NOTE. WEIGHT FRACTION OF FUEL IN TOTAL FUELS AND OF OXIDANT IN TOTAL OXIDANTS









               THERMODYNAMIC EQUILIBRIUM PROPERTIES AT ASSIGNED

                           TEMPERATURE AND PRESSURE

 CASE =                

             REACTANT                    WT FRACTION      ENERGY      TEMP
                                          (SEE NOTE)     KJ/KG-MOL      K  
 FUEL        H2                           1.0000000         0.000      0.000
 OXIDANT     H2                           1.0000000         0.000      0.000

 O/F=    1.00000  %FUEL= 50.000000  R,EQ.RATIO= 0.000000  PHI,EQ.RATIO=-1.000000

 THERMODYNAMIC PROPERTIES

 P, BAR           0.02800  0.02800  0.02800  0.02800  0.02800  0.02800  0.02800  0.02800
 T, K             1720.00  1730.00  1740.00  1750.00  1760.00  1770.00  1780.00  1790.00
 RHO, KG/CU M    3.9448-4 3.9218-4 3.8991-4 3.8766-4 3.8543-4 3.8322-4 3.8104-4 3.7888-4
 H, KJ/KG         21696.0  21872.3  22049.8  22228.4  22408.4  22589.6  22772.3  22956.5
 U, KJ/KG         14598.1  14732.8  14868.6  15005.5  15143.7  15283.2  15424.1  15566.4
 G, KJ/KG       -160216.3-161274.4-162333.6-163393.8-164455.0-165517.2-166580.5-167644.8
 S, KJ/(KG)(K)   105.7630 105.8652 105.9675 106.0698 106.1724 106.2751 106.3780 106.4812

 M, (1/n)           2.015    2.015    2.015    2.014    2.014    2.014    2.014    2.014
 (dLV/dLP)t      -1.00027 -1.00029 -1.00032 -1.00035 -1.00038 -1.00041 -1.00045 -1.00049
 (dLV/dLT)p        1.0084   1.0091   1.0099   1.0108   1.0117   1.0127   1.0138   1.0149
 Cp, KJ/(KG)(K)   17.5753  17.6863  17.8035  17.9275  18.0583  18.1966  18.3426  18.4968
 GAMMAs            1.3132   1.3112   1.3091   1.3070   1.3048   1.3025   1.3002   1.2977
 SON VEL,M/SEC     3053.0   3059.6   3066.1   3072.5   3078.8   3084.9   3090.9   3096.9

 TRANSPORT PROPERTIES (GASES ONLY)
   CONDUCTIVITY IN UNITS OF MILLIWATTS/(CM)(K)

 VISC,MILLIPOISE  0.30060  0.30186  0.30313  0.30439  0.30566  0.30693  0.30819  0.30946

  WITH EQUILIBRIUM REACTIONS

 Cp, KJ/(KG)(K)   17.5753  17.6863  17.8035  17.9275  18.0583  18.1966  18.3426  18.4968
 CONDUCTIVITY      7.9293   8.0447   8.1660   8.2935   8.4277   8.5690   8.7177   8.8742
 PRANDTL NUMBER    0.6663   0.6636   0.6609   0.6580   0.6549   0.6518   0.6485   0.6450

  WITH FROZEN REACTIONS

 Cp, KJ/(KG)(K)   16.4835  16.5035  16.5234  16.5433  16.5631  16.5829  16.6025  16.6221
 CONDUCTIVITY      7.0526   7.0904   7.1283   7.1663   7.2043   7.2424   7.2807   7.3190
 PRANDTL NUMBER    0.7026   0.7026   0.7026   0.7027   0.7027   0.7028   0.7028   0.7028

 MASS FRACTIONS

 *H               0.00053  0.00058  0.00064  0.00070  0.00076  0.00083  0.00090  0.00098
 *H2              0.99947  0.99942  0.99936  0.99930  0.99924  0.99917  0.99910  0.99902

  * THERMODYNAMIC PROPERTIES FITTED TO 20000.K

 NOTE. WEIGHT FRACTION OF FUEL IN TOTAL FUELS AND OF OXIDANT IN TOTAL OXIDANTS









               THERMODYNAMIC EQUILIBRIUM PROPERTIES AT ASSIGNED

                           TEMPERATURE AND PRESSURE

 CASE =                

             REACTANT                    WT FRACTION      ENERGY      TEMP
                                          (SEE NOTE)     KJ/KG-MOL      K  
 FUEL        H2                           1.0000000         0.000      0.000
 OXIDANT     H2                           1.0000000         0.000      0.000

 O/F=    1.00000  %FUEL= 50.000000  R,EQ.RATIO= 0.000000  PHI,EQ.RATIO=-1.000000

 THERMODYNAMIC PROPERTIES

 P, BAR           0.02800  0.02800  0.02800  0.02800  0.02800  0.03100  0.03100  0.03100
 T, K             1800.00  1810.00  1820.00  1830.00  1840.00  1700.00  1710.00  1720.00
 RHO, KG/CU M    3.7675-4 3.7463-4 3.7253-4 3.7046-4 3.6840-4 4.4194-4 4.3933-4 4.3676-4
 H, KJ/KG         23142.3  23329.7  23518.9  23710.0  23903.0  21341.7  21515.4  21690.1
 U, KJ/KG         15710.2  15855.7  16002.8  16151.8  16302.7  14327.1  14459.3  14592.4
 G, KJ/KG       -168710.1-169776.5-170843.9-171912.3-172981.8-157389.1-158441.0-159493.9
 S, KJ/(KG)(K)   106.5847 106.6885 106.7928 106.8975 107.0027 105.1358 105.2377 105.3395

 M, (1/n)           2.014    2.014    2.013    2.013    2.013    2.015    2.015    2.015
 (dLV/dLP)t      -1.00054 -1.00058 -1.00063 -1.00069 -1.00074 -1.00021 -1.00023 -1.00025
 (dLV/dLT)p        1.0162   1.0175   1.0189   1.0204   1.0220   1.0067   1.0073   1.0080
 Cp, KJ/(KG)(K)   18.6595  18.8313  19.0125  19.2036  19.4052  17.3246  17.4201  17.5210
 GAMMAs            1.2953   1.2927   1.2901   1.2874   1.2847   1.3178   1.3160   1.3141
 SON VEL,M/SEC     3102.7   3108.3   3113.9   3119.4   3124.7   3040.4   3047.3   3054.1

 TRANSPORT PROPERTIES (GASES ONLY)
   CONDUCTIVITY IN UNITS OF MILLIWATTS/(CM)(K)

 VISC,MILLIPOISE  0.31074  0.31201  0.31328  0.31456  0.31584  0.29806  0.29933  0.30059

  WITH EQUILIBRIUM REACTIONS

 Cp, KJ/(KG)(K)   18.6595  18.8313  19.0125  19.2036  19.4052  17.3246  17.4201  17.5210
 CONDUCTIVITY      9.0391   9.2127   9.3956   9.5883   9.7912   7.6781   7.7793   7.8855
 PRANDTL NUMBER    0.6415   0.6378   0.6339   0.6300   0.6260   0.6725   0.6703   0.6679

  WITH FROZEN REACTIONS

 Cp, KJ/(KG)(K)   16.6416  16.6611  16.6805  16.6999  16.7191  16.4432  16.4633  16.4834
 CONDUCTIVITY      7.3575   7.3960   7.4347   7.4735   7.5124   6.9770   7.0146   7.0523
 PRANDTL NUMBER    0.7028   0.7029   0.7029   0.7029   0.7029   0.7025   0.7025   0.7026

 MASS FRACTIONS

 *H               0.00107  0.00116  0.00127  0.00137  0.00149  0.00042  0.00046  0.00050
 *H2              0.99893  0.99884  0.99873  0.99863  0.99851  0.99958  0.99954  0.99950

  * THERMODYNAMIC PROPERTIES FITTED TO 20000.K

 NOTE. WEIGHT FRACTION OF FUEL IN TOTAL FUELS AND OF OXIDANT IN TOTAL OXIDANTS









               THERMODYNAMIC EQUILIBRIUM PROPERTIES AT ASSIGNED

                           TEMPERATURE AND PRESSURE

 CASE =                

             REACTANT                    WT FRACTION      ENERGY      TEMP
                                          (SEE NOTE)     KJ/KG-MOL      K  
 FUEL        H2                           1.0000000         0.000      0.000
 OXIDANT     H2                           1.0000000         0.000      0.000

 O/F=    1.00000  %FUEL= 50.000000  R,EQ.RATIO= 0.000000  PHI,EQ.RATIO=-1.000000

 THERMODYNAMIC PROPERTIES

 P, BAR           0.03100  0.03100  0.03100  0.03100  0.03100  0.03100  0.03100  0.03100
 T, K             1730.00  1740.00  1750.00  1760.00  1770.00  1780.00  1790.00  1800.00
 RHO, KG/CU M    4.3421-4 4.3170-4 4.2920-4 4.2674-4 4.2430-4 4.2189-4 4.1950-4 4.1713-4
 H, KJ/KG         21865.9  22042.7  22220.7  22399.9  22580.4  22762.3  22945.5  23130.4
 U, KJ/KG         14726.5  14861.7  14998.0  15135.5  15274.3  15414.3  15555.8  15698.7
 G, KJ/KG       -160547.8-161602.7-162658.6-163715.6-164773.6-165832.6-166892.6-167953.7
 S, KJ/(KG)(K)   105.4414 105.5433 105.6453 105.7474 105.8497 105.9522 106.0548 106.1578

 M, (1/n)           2.015    2.015    2.015    2.014    2.014    2.014    2.014    2.014
 (dLV/dLP)t      -1.00028 -1.00030 -1.00033 -1.00036 -1.00039 -1.00043 -1.00047 -1.00051
 (dLV/dLT)p        1.0087   1.0094   1.0103   1.0111   1.0121   1.0131   1.0142   1.0154
 Cp, KJ/(KG)(K)   17.6275  17.7399  17.8586  17.9840  18.1164  18.2561  18.4036  18.5592
 GAMMAs            1.3122   1.3102   1.3081   1.3060   1.3038   1.3015   1.2992   1.2968
 SON VEL,M/SEC     3060.7   3067.3   3073.8   3080.1   3086.4   3092.5   3098.5   3104.4

 TRANSPORT PROPERTIES (GASES ONLY)
   CONDUCTIVITY IN UNITS OF MILLIWATTS/(CM)(K)

 VISC,MILLIPOISE  0.30185  0.30312  0.30438  0.30565  0.30691  0.30818  0.30945  0.31072

  WITH EQUILIBRIUM REACTIONS

 Cp, KJ/(KG)(K)   17.6275  17.7399  17.8586  17.9840  18.1164  18.2561  18.4036  18.5592
 CONDUCTIVITY      7.9970   8.1141   8.2372   8.3666   8.5027   8.6458   8.7965   8.9550
 PRANDTL NUMBER    0.6654   0.6627   0.6599   0.6570   0.6539   0.6507   0.6474   0.6440

  WITH FROZEN REACTIONS

 Cp, KJ/(KG)(K)   16.5034  16.5233  16.5432  16.5630  16.5827  16.6023  16.6219  16.6414
 CONDUCTIVITY      7.0901   7.1279   7.1658   7.2038   7.2419   7.2801   7.3184   7.3567
 PRANDTL NUMBER    0.7026   0.7027   0.7027   0.7027   0.7028   0.7028   0.7028   0.7029

 MASS FRACTIONS

 *H               0.00055  0.00060  0.00066  0.00072  0.00079  0.00086  0.00094  0.00102
 *H2              0.99945  0.99940  0.99934  0.99928  0.99921  0.99914  0.99906  0.99898

  * THERMODYNAMIC PROPERTIES FITTED TO 20000.K

 NOTE. WEIGHT FRACTION OF FUEL IN TOTAL FUELS AND OF OXIDANT IN TOTAL OXIDANTS









               THERMODYNAMIC EQUILIBRIUM PROPERTIES AT ASSIGNED

                           TEMPERATURE AND PRESSURE

 CASE =                

             REACTANT                    WT FRACTION      ENERGY      TEMP
                                          (SEE NOTE)     KJ/KG-MOL      K  
 FUEL        H2                           1.0000000         0.000      0.000
 OXIDANT     H2                           1.0000000         0.000      0.000

 O/F=    1.00000  %FUEL= 50.000000  R,EQ.RATIO= 0.000000  PHI,EQ.RATIO=-1.000000

 THERMODYNAMIC PROPERTIES

 P, BAR           0.03100  0.03100  0.03100  0.03100  0.03500  0.03500  0.03500  0.03500
 T, K             1810.00  1820.00  1830.00  1840.00  1700.00  1710.00  1720.00  1730.00
 RHO, KG/CU M    4.1479-4 4.1247-4 4.1018-4 4.0790-4 4.9897-4 4.9603-4 4.9313-4 4.9026-4
 H, KJ/KG         23316.8  23504.9  23694.7  23886.5  21336.2  21509.4  21683.5  21858.6
 U, KJ/KG         15843.1  15989.2  16137.0  16286.6  14321.8  14453.4  14586.0  14719.5
 G, KJ/KG       -169015.8-170078.9-171143.1-172208.3-156537.9-157584.7-158632.5-159681.3
 S, KJ/(KG)(K)   106.2611 106.3647 106.4687 106.5732 104.6318 104.7333 104.8349 104.9364

 M, (1/n)           2.014    2.013    2.013    2.013    2.015    2.015    2.015    2.015
 (dLV/dLP)t      -1.00055 -1.00060 -1.00065 -1.00071 -1.00020 -1.00022 -1.00024 -1.00026
 (dLV/dLT)p        1.0166   1.0180   1.0194   1.0209   1.0063   1.0069   1.0075   1.0082
 Cp, KJ/(KG)(K)   18.7234  18.8965  19.0791  19.2716  17.2726  17.3637  17.4598  17.5611
 GAMMAs            1.2943   1.2917   1.2891   1.2864   1.3187   1.3170   1.3152   1.3133
 SON VEL,M/SEC     3110.1   3115.8   3121.3   3126.8   3041.4   3048.4   3055.3   3062.0

 TRANSPORT PROPERTIES (GASES ONLY)
   CONDUCTIVITY IN UNITS OF MILLIWATTS/(CM)(K)

 VISC,MILLIPOISE  0.31199  0.31326  0.31454  0.31582  0.29806  0.29932  0.30058  0.30184

  WITH EQUILIBRIUM REACTIONS

 Cp, KJ/(KG)(K)   18.7234  18.8965  19.0791  19.2716  17.2726  17.3637  17.4598  17.5611
 CONDUCTIVITY      9.1219   9.2976   9.4826   9.6773   7.6365   7.7339   7.8361   7.9432
 PRANDTL NUMBER    0.6404   0.6367   0.6329   0.6289   0.6742   0.6720   0.6697   0.6673

  WITH FROZEN REACTIONS

 Cp, KJ/(KG)(K)   16.6609  16.6803  16.6996  16.7188  16.4431  16.4632  16.4833  16.5033
 CONDUCTIVITY      7.3952   7.4338   7.4726   7.5114   6.9767   7.0143   7.0519   7.0896
 PRANDTL NUMBER    0.7029   0.7029   0.7029   0.7029   0.7025   0.7025   0.7026   0.7026

 MASS FRACTIONS

 *H               0.00111  0.00120  0.00130  0.00141  0.00039  0.00043  0.00047  0.00052
 *H2              0.99889  0.99880  0.99870  0.99859  0.99961  0.99957  0.99953  0.99948

  * THERMODYNAMIC PROPERTIES FITTED TO 20000.K

 NOTE. WEIGHT FRACTION OF FUEL IN TOTAL FUELS AND OF OXIDANT IN TOTAL OXIDANTS









               THERMODYNAMIC EQUILIBRIUM PROPERTIES AT ASSIGNED

                           TEMPERATURE AND PRESSURE

 CASE =                

             REACTANT                    WT FRACTION      ENERGY      TEMP
                                          (SEE NOTE)     KJ/KG-MOL      K  
 FUEL        H2                           1.0000000         0.000      0.000
 OXIDANT     H2                           1.0000000         0.000      0.000

 O/F=    1.00000  %FUEL= 50.000000  R,EQ.RATIO= 0.000000  PHI,EQ.RATIO=-1.000000

 THERMODYNAMIC PROPERTIES

 P, BAR           0.03500  0.03500  0.03500  0.03500  0.03500  0.03500  0.03500  0.03500
 T, K             1740.00  1750.00  1760.00  1770.00  1780.00  1790.00  1800.00  1810.00
 RHO, KG/CU M    4.8742-4 4.8460-4 4.8182-4 4.7907-4 4.7635-4 4.7365-4 4.7099-4 4.6834-4
 H, KJ/KG         22034.7  22212.0  22390.4  22570.0  22750.9  22933.2  23116.9  23302.1
 U, KJ/KG         14854.0  14989.6  15126.3  15264.2  15403.4  15543.8  15685.7  15829.0
 G, KJ/KG       -160731.2-161782.1-162834.0-163886.9-164940.9-165995.8-167051.8-168108.8
 S, KJ/(KG)(K)   105.0379 105.1395 105.2411 105.3429 105.4448 105.5469 105.6493 105.7519

 M, (1/n)           2.015    2.015    2.015    2.014    2.014    2.014    2.014    2.014
 (dLV/dLP)t      -1.00028 -1.00031 -1.00034 -1.00037 -1.00040 -1.00044 -1.00048 -1.00052
 (dLV/dLT)p        1.0089   1.0097   1.0105   1.0114   1.0123   1.0134   1.0145   1.0156
 Cp, KJ/(KG)(K)   17.6681  17.7810  17.9002  18.0259  18.1585  18.2984  18.4460  18.6017
 GAMMAs            1.3114   1.3094   1.3074   1.3052   1.3030   1.3008   1.2985   1.2961
 SON VEL,M/SEC     3068.7   3075.2   3081.7   3088.0   3094.2   3100.3   3106.3   3112.2

 TRANSPORT PROPERTIES (GASES ONLY)
   CONDUCTIVITY IN UNITS OF MILLIWATTS/(CM)(K)

 VISC,MILLIPOISE  0.30311  0.30437  0.30563  0.30690  0.30816  0.30943  0.31070  0.31197

  WITH EQUILIBRIUM REACTIONS

 Cp, KJ/(KG)(K)   17.6681  17.7810  17.9002  18.0259  18.1585  18.2984  18.4460  18.6017
 CONDUCTIVITY      8.0556   8.1736   8.2976   8.4279   8.5648   8.7088   8.8602   9.0195
 PRANDTL NUMBER    0.6648   0.6621   0.6593   0.6564   0.6533   0.6502   0.6468   0.6434

  WITH FROZEN REACTIONS

 Cp, KJ/(KG)(K)   16.5232  16.5430  16.5628  16.5825  16.6021  16.6217  16.6412  16.6606
 CONDUCTIVITY      7.1274   7.1653   7.2033   7.2413   7.2794   7.3176   7.3559   7.3944
 PRANDTL NUMBER    0.7027   0.7027   0.7028   0.7028   0.7028   0.7029   0.7029   0.7029

 MASS FRACTIONS

 *H               0.00057  0.00062  0.00068  0.00074  0.00081  0.00088  0.00096  0.00104
 *H2              0.99943  0.99938  0.99932  0.99926  0.99919  0.99912  0.99904  0.99896

  * THERMODYNAMIC PROPERTIES FITTED TO 20000.K

 NOTE. WEIGHT FRACTION OF FUEL IN TOTAL FUELS AND OF OXIDANT IN TOTAL OXIDANTS









               THERMODYNAMIC EQUILIBRIUM PROPERTIES AT ASSIGNED

                           TEMPERATURE AND PRESSURE

 CASE =                

             REACTANT                    WT FRACTION      ENERGY      TEMP
                                          (SEE NOTE)     KJ/KG-MOL      K  
 FUEL        H2                           1.0000000         0.000      0.000
 OXIDANT     H2                           1.0000000         0.000      0.000

 O/F=    1.00000  %FUEL= 50.000000  R,EQ.RATIO= 0.000000  PHI,EQ.RATIO=-1.000000

 THERMODYNAMIC PROPERTIES

 P, BAR           0.03500  0.03500  0.03500  0.03900  0.03900  0.03900  0.03900  0.03900
 T, K             1820.00  1830.00  1840.00  1700.00  1710.00  1720.00  1730.00  1740.00
 RHO, KG/CU M    4.6573-4 4.6314-4 4.6058-4 5.5601-4 5.5274-4 5.4950-4 5.4630-4 5.4314-4
 H, KJ/KG         23489.0  23677.5  23867.8  21331.5  21504.3  21677.9  21852.4  22028.0
 U, KJ/KG         15973.9  16120.4  16268.6  14317.3  14448.5  14580.5  14713.5  14847.5
 G, KJ/KG       -169166.8-170225.9-171286.0-155778.8-156821.1-157864.5-158908.8-159954.2
 S, KJ/(KG)(K)   105.8548 105.9581 106.0618 104.1826 104.2838 104.3851 104.4863 104.5875

 M, (1/n)           2.014    2.013    2.013    2.015    2.015    2.015    2.015    2.015
 (dLV/dLP)t      -1.00057 -1.00061 -1.00066 -1.00019 -1.00020 -1.00022 -1.00025 -1.00027
 (dLV/dLT)p        1.0169   1.0182   1.0197   1.0060   1.0065   1.0071   1.0077   1.0084
 Cp, KJ/(KG)(K)   18.7658  18.9387  19.1210  17.2289  17.3162  17.4082  17.5053  17.6077
 GAMMAs            1.2936   1.2911   1.2885   1.3195   1.3179   1.3161   1.3143   1.3124
 SON VEL,M/SEC     3118.0   3123.6   3129.2   3042.3   3049.4   3056.3   3063.1   3069.9

 TRANSPORT PROPERTIES (GASES ONLY)
   CONDUCTIVITY IN UNITS OF MILLIWATTS/(CM)(K)

 VISC,MILLIPOISE  0.31324  0.31451  0.31579  0.29805  0.29931  0.30057  0.30183  0.30310

  WITH EQUILIBRIUM REACTIONS

 Cp, KJ/(KG)(K)   18.7658  18.9387  19.1210  17.2289  17.3162  17.4082  17.5053  17.6077
 CONDUCTIVITY      9.1871   9.3634   9.5488   7.6015   7.6957   7.7945   7.8979   8.0064
 PRANDTL NUMBER    0.6398   0.6361   0.6323   0.6755   0.6735   0.6713   0.6690   0.6666

  WITH FROZEN REACTIONS

 Cp, KJ/(KG)(K)   16.6800  16.6993  16.7185  16.4430  16.4631  16.4832  16.5031  16.5231
 CONDUCTIVITY      7.4329   7.4715   7.5103   6.9764   7.0140   7.0516   7.0893   7.1270
 PRANDTL NUMBER    0.7029   0.7030   0.7030   0.7025   0.7025   0.7026   0.7026   0.7027

 MASS FRACTIONS

 *H               0.00113  0.00123  0.00133  0.00037  0.00041  0.00045  0.00049  0.00054
 *H2              0.99887  0.99877  0.99867  0.99963  0.99959  0.99955  0.99951  0.99946

  * THERMODYNAMIC PROPERTIES FITTED TO 20000.K

 NOTE. WEIGHT FRACTION OF FUEL IN TOTAL FUELS AND OF OXIDANT IN TOTAL OXIDANTS









               THERMODYNAMIC EQUILIBRIUM PROPERTIES AT ASSIGNED

                           TEMPERATURE AND PRESSURE

 CASE =                

             REACTANT                    WT FRACTION      ENERGY      TEMP
                                          (SEE NOTE)     KJ/KG-MOL      K  
 FUEL        H2                           1.0000000         0.000      0.000
 OXIDANT     H2                           1.0000000         0.000      0.000

 O/F=    1.00000  %FUEL= 50.000000  R,EQ.RATIO= 0.000000  PHI,EQ.RATIO=-1.000000

 THERMODYNAMIC PROPERTIES

 P, BAR           0.03900  0.03900  0.03900  0.03900  0.03900  0.03900  0.03900  0.03900
 T, K             1750.00  1760.00  1770.00  1780.00  1790.00  1800.00  1810.00  1820.00
 RHO, KG/CU M    5.4001-4 5.3691-4 5.3384-4 5.3081-4 5.2781-4 5.2484-4 5.2190-4 5.1899-4
 H, KJ/KG         22204.6  22382.3  22561.2  22741.4  22922.8  23105.6  23289.8  23475.6
 U, KJ/KG         14982.5  15118.5  15255.7  15394.1  15533.8  15674.7  15817.1  15960.9
 G, KJ/KG       -161000.6-162047.9-163096.4-164145.8-165196.2-166247.7-167300.1-168353.6
 S, KJ/(KG)(K)   104.6887 104.7899 104.8913 104.9928 105.0944 105.1962 105.2983 105.4007

 M, (1/n)           2.015    2.015    2.014    2.014    2.014    2.014    2.014    2.014
 (dLV/dLP)t      -1.00029 -1.00032 -1.00035 -1.00038 -1.00042 -1.00045 -1.00049 -1.00054
 (dLV/dLT)p        1.0092   1.0099   1.0108   1.0117   1.0127   1.0137   1.0148   1.0160
 Cp, KJ/(KG)(K)   17.7157  17.8296  17.9497  18.0764  18.2099  18.3508  18.4992  18.6557
 GAMMAs            1.3105   1.3085   1.3065   1.3044   1.3022   1.2999   1.2976   1.2952
 SON VEL,M/SEC     3076.5   3083.0   3089.4   3095.7   3101.9   3108.0   3113.9   3119.8

 TRANSPORT PROPERTIES (GASES ONLY)
   CONDUCTIVITY IN UNITS OF MILLIWATTS/(CM)(K)

 VISC,MILLIPOISE  0.30436  0.30562  0.30689  0.30815  0.30942  0.31068  0.31195  0.31322

  WITH EQUILIBRIUM REACTIONS

 Cp, KJ/(KG)(K)   17.7157  17.8296  17.9497  18.0764  18.2099  18.3508  18.4992  18.6557
 CONDUCTIVITY      8.1201   8.2395   8.3649   8.4966   8.6350   8.7804   8.9333   9.0940
 PRANDTL NUMBER    0.6640   0.6613   0.6585   0.6556   0.6525   0.6493   0.6460   0.6426

  WITH FROZEN REACTIONS

 Cp, KJ/(KG)(K)   16.5429  16.5627  16.5823  16.6020  16.6215  16.6410  16.6604  16.6798
 CONDUCTIVITY      7.1649   7.2028   7.2408   7.2789   7.3170   7.3553   7.3936   7.4321
 PRANDTL NUMBER    0.7027   0.7028   0.7028   0.7028   0.7029   0.7029   0.7029   0.7030

 MASS FRACTIONS

 *H               0.00059  0.00064  0.00070  0.00077  0.00083  0.00091  0.00099  0.00107
 *H2              0.99941  0.99936  0.99930  0.99923  0.99917  0.99909  0.99901  0.99893

  * THERMODYNAMIC PROPERTIES FITTED TO 20000.K

 NOTE. WEIGHT FRACTION OF FUEL IN TOTAL FUELS AND OF OXIDANT IN TOTAL OXIDANTS









               THERMODYNAMIC EQUILIBRIUM PROPERTIES AT ASSIGNED

                           TEMPERATURE AND PRESSURE

 CASE =                

             REACTANT                    WT FRACTION      ENERGY      TEMP
                                          (SEE NOTE)     KJ/KG-MOL      K  
 FUEL        H2                           1.0000000         0.000      0.000
 OXIDANT     H2                           1.0000000         0.000      0.000

 O/F=    1.00000  %FUEL= 50.000000  R,EQ.RATIO= 0.000000  PHI,EQ.RATIO=-1.000000

 THERMODYNAMIC PROPERTIES

 P, BAR           0.03900  0.03900  0.04400  0.04400  0.04400  0.04400  0.04400  0.04400
 T, K             1830.00  1840.00  1700.00  1710.00  1720.00  1730.00  1740.00  1750.00
 RHO, KG/CU M    5.1610-4 5.1325-4 6.2731-4 6.2362-4 6.1997-4 6.1636-4 6.1279-4 6.0926-4
 H, KJ/KG         23663.0  23852.0  21326.7  21498.9  21672.0  21846.0  22020.9  22196.9
 U, KJ/KG         16106.3  16253.4  14312.5  14443.3  14574.8  14707.3  14840.6  14975.0
 G, KJ/KG       -169408.2-170463.7-154932.7-155970.0-157008.3-158047.7-159088.0-160129.4
 S, KJ/(KG)(K)   105.5033 105.6064 103.6820 103.7830 103.8839 103.9848 104.0856 104.1864

 M, (1/n)           2.014    2.013    2.015    2.015    2.015    2.015    2.015    2.015
 (dLV/dLP)t      -1.00058 -1.00063 -1.00018 -1.00019 -1.00021 -1.00023 -1.00025 -1.00028
 (dLV/dLT)p        1.0173   1.0186   1.0056   1.0061   1.0067   1.0073   1.0079   1.0086
 Cp, KJ/(KG)(K)   18.8205  18.9942  17.1828  17.2661  17.3540  17.4465  17.5441  17.6469
 GAMMAs            1.2928   1.2903   1.3204   1.3188   1.3171   1.3153   1.3135   1.3117
 SON VEL,M/SEC     3125.5   3131.2   3043.3   3050.4   3057.4   3064.3   3071.1   3077.8

 TRANSPORT PROPERTIES (GASES ONLY)
   CONDUCTIVITY IN UNITS OF MILLIWATTS/(CM)(K)

 VISC,MILLIPOISE  0.31449  0.31577  0.29804  0.29930  0.30056  0.30182  0.30309  0.30435

  WITH EQUILIBRIUM REACTIONS

 Cp, KJ/(KG)(K)   18.8205  18.9942  17.1828  17.2661  17.3540  17.4465  17.5441  17.6469
 CONDUCTIVITY      9.2630   9.4407   7.5646   7.6555   7.7507   7.8502   7.9545   8.0638
 PRANDTL NUMBER    0.6390   0.6353   0.6770   0.6750   0.6730   0.6708   0.6685   0.6660

  WITH FROZEN REACTIONS

 Cp, KJ/(KG)(K)   16.6990  16.7182  16.4429  16.4630  16.4830  16.5030  16.5229  16.5427
 CONDUCTIVITY      7.4707   7.5094   6.9761   7.0137   7.0513   7.0889   7.1266   7.1644
 PRANDTL NUMBER    0.7030   0.7030   0.7025   0.7025   0.7026   0.7026   0.7027   0.7027

 MASS FRACTIONS

 *H               0.00116  0.00126  0.00035  0.00039  0.00042  0.00046  0.00051  0.00056
 *H2              0.99884  0.99874  0.99965  0.99961  0.99958  0.99954  0.99949  0.99944

  * THERMODYNAMIC PROPERTIES FITTED TO 20000.K

 NOTE. WEIGHT FRACTION OF FUEL IN TOTAL FUELS AND OF OXIDANT IN TOTAL OXIDANTS









               THERMODYNAMIC EQUILIBRIUM PROPERTIES AT ASSIGNED

                           TEMPERATURE AND PRESSURE

 CASE =                

             REACTANT                    WT FRACTION      ENERGY      TEMP
                                          (SEE NOTE)     KJ/KG-MOL      K  
 FUEL        H2                           1.0000000         0.000      0.000
 OXIDANT     H2                           1.0000000         0.000      0.000

 O/F=    1.00000  %FUEL= 50.000000  R,EQ.RATIO= 0.000000  PHI,EQ.RATIO=-1.000000

 THERMODYNAMIC PROPERTIES

 P, BAR           0.04400  0.04400  0.04400  0.04400  0.04400  0.04400  0.04400  0.04400
 T, K             1760.00  1770.00  1780.00  1790.00  1800.00  1810.00  1820.00  1830.00
 RHO, KG/CU M    6.0577-4 6.0231-4 5.9889-4 5.9551-4 5.9216-4 5.8884-4 5.8556-4 5.8231-4
 H, KJ/KG         22373.9  22552.0  22731.3  22911.8  23093.7  23276.9  23461.5  23647.7
 U, KJ/KG         15110.4  15246.8  15384.4  15523.2  15663.2  15804.6  15947.3  16091.6
 G, KJ/KG       -161171.7-162215.1-163259.5-164304.9-165351.3-166398.7-167447.2-168496.6
 S, KJ/(KG)(K)   104.2873 104.3882 104.4892 104.5904 104.6917 104.7932 104.8949 104.9969

 M, (1/n)           2.015    2.015    2.014    2.014    2.014    2.014    2.014    2.014
 (dLV/dLP)t      -1.00030 -1.00033 -1.00036 -1.00039 -1.00043 -1.00046 -1.00050 -1.00055
 (dLV/dLT)p        1.0094   1.0102   1.0110   1.0119   1.0129   1.0140   1.0151   1.0163
 Cp, KJ/(KG)(K)   17.7553  17.8695  17.9899  18.1168  18.2505  18.3914  18.5398  18.6961
 GAMMAs            1.3098   1.3078   1.3057   1.3036   1.3015   1.2992   1.2969   1.2946
 SON VEL,M/SEC     3084.4   3090.9   3097.3   3103.6   3109.7   3115.8   3121.8   3127.6

 TRANSPORT PROPERTIES (GASES ONLY)
   CONDUCTIVITY IN UNITS OF MILLIWATTS/(CM)(K)

 VISC,MILLIPOISE  0.30561  0.30687  0.30814  0.30940  0.31067  0.31193  0.31320  0.31447

  WITH EQUILIBRIUM REACTIONS

 Cp, KJ/(KG)(K)   17.7553  17.8695  17.9899  18.1168  18.2505  18.3914  18.5398  18.6961
 CONDUCTIVITY      8.1784   8.2986   8.4248   8.5572   8.6963   8.8425   8.9960   9.1573
 PRANDTL NUMBER    0.6635   0.6608   0.6580   0.6550   0.6520   0.6488   0.6455   0.6420

  WITH FROZEN REACTIONS

 Cp, KJ/(KG)(K)   16.5625  16.5822  16.6018  16.6213  16.6408  16.6602  16.6795  16.6988
 CONDUCTIVITY      7.2023   7.2402   7.2783   7.3164   7.3546   7.3929   7.4313   7.4698
 PRANDTL NUMBER    0.7028   0.7028   0.7029   0.7029   0.7029   0.7030   0.7030   0.7030

 MASS FRACTIONS

 *H               0.00061  0.00066  0.00072  0.00079  0.00085  0.00093  0.00101  0.00110
 *H2              0.99939  0.99934  0.99928  0.99921  0.99915  0.99907  0.99899  0.99890

  * THERMODYNAMIC PROPERTIES FITTED TO 20000.K

 NOTE. WEIGHT FRACTION OF FUEL IN TOTAL FUELS AND OF OXIDANT IN TOTAL OXIDANTS









               THERMODYNAMIC EQUILIBRIUM PROPERTIES AT ASSIGNED

                           TEMPERATURE AND PRESSURE

 CASE =                

             REACTANT                    WT FRACTION      ENERGY      TEMP
                                          (SEE NOTE)     KJ/KG-MOL      K  
 FUEL        H2                           1.0000000         0.000      0.000
 OXIDANT     H2                           1.0000000         0.000      0.000

 O/F=    1.00000  %FUEL= 50.000000  R,EQ.RATIO= 0.000000  PHI,EQ.RATIO=-1.000000

 THERMODYNAMIC PROPERTIES

 P, BAR           0.04400  0.04900  0.04900  0.04900  0.04900  0.04900  0.04900  0.04900
 T, K             1840.00  1700.00  1710.00  1720.00  1730.00  1740.00  1750.00  1760.00
 RHO, KG/CU M    5.7909-4 6.9860-4 6.9449-4 6.9043-4 6.8642-4 6.8244-4 6.7851-4 6.7462-4
 H, KJ/KG         23835.5  21322.5  21494.4  21667.0  21840.5  22015.0  22190.4  22366.8
 U, KJ/KG         16237.4  14308.5  14438.9  14570.0  14702.0  14834.9  14968.7  15103.5
 G, KJ/KG       -169547.1-154177.8-155210.6-156244.5-157279.3-158315.2-159352.1-160390.0
 S, KJ/(KG)(K)   105.0992 103.2355 103.3362 103.4369 103.5375 103.6380 103.7385 103.8391

 M, (1/n)           2.013    2.015    2.015    2.015    2.015    2.015    2.015    2.015
 (dLV/dLP)t      -1.00059 -1.00017 -1.00018 -1.00020 -1.00022 -1.00024 -1.00026 -1.00029
 (dLV/dLT)p        1.0175   1.0053   1.0058   1.0063   1.0069   1.0075   1.0082   1.0089
 Cp, KJ/(KG)(K)   18.8607  17.1439  17.2240  17.3083  17.3970  17.4905  17.5889  17.6926
 GAMMAs            1.2922   1.3211   1.3195   1.3179   1.3162   1.3145   1.3127   1.3108
 SON VEL,M/SEC     3133.4   3044.1   3051.2   3058.3   3065.3   3072.1   3078.9   3085.6

 TRANSPORT PROPERTIES (GASES ONLY)
   CONDUCTIVITY IN UNITS OF MILLIWATTS/(CM)(K)

 VISC,MILLIPOISE  0.31574  0.29804  0.29930  0.30056  0.30182  0.30308  0.30434  0.30560

  WITH EQUILIBRIUM REACTIONS

 Cp, KJ/(KG)(K)   18.8607  17.1439  17.2240  17.3083  17.3970  17.4905  17.5889  17.6926
 CONDUCTIVITY      9.3268   7.5336   7.6217   7.7138   7.8100   7.9108   8.0163   8.1269
 PRANDTL NUMBER    0.6385   0.6782   0.6764   0.6744   0.6723   0.6701   0.6678   0.6653

  WITH FROZEN REACTIONS

 Cp, KJ/(KG)(K)   16.7180  16.4428  16.4629  16.4830  16.5029  16.5228  16.5426  16.5624
 CONDUCTIVITY      7.5084   6.9759   7.0134   7.0510   7.0886   7.1263   7.1640   7.2019
 PRANDTL NUMBER    0.7030   0.7025   0.7026   0.7026   0.7027   0.7027   0.7028   0.7028

 MASS FRACTIONS

 *H               0.00119  0.00033  0.00037  0.00040  0.00044  0.00048  0.00053  0.00057
 *H2              0.99881  0.99967  0.99963  0.99960  0.99956  0.99952  0.99947  0.99943

  * THERMODYNAMIC PROPERTIES FITTED TO 20000.K

 NOTE. WEIGHT FRACTION OF FUEL IN TOTAL FUELS AND OF OXIDANT IN TOTAL OXIDANTS









               THERMODYNAMIC EQUILIBRIUM PROPERTIES AT ASSIGNED

                           TEMPERATURE AND PRESSURE

 CASE =                

             REACTANT                    WT FRACTION      ENERGY      TEMP
                                          (SEE NOTE)     KJ/KG-MOL      K  
 FUEL        H2                           1.0000000         0.000      0.000
 OXIDANT     H2                           1.0000000         0.000      0.000

 O/F=    1.00000  %FUEL= 50.000000  R,EQ.RATIO= 0.000000  PHI,EQ.RATIO=-1.000000

 THERMODYNAMIC PROPERTIES

 P, BAR           0.04900  0.04900  0.04900  0.04900  0.04900  0.04900  0.04900  0.04900
 T, K             1770.00  1780.00  1790.00  1800.00  1810.00  1820.00  1830.00  1840.00
 RHO, KG/CU M    6.7078-4 6.6697-4 6.6321-4 6.5948-4 6.5579-4 6.5214-4 6.4852-4 6.4494-4
 H, KJ/KG         22544.2  22722.8  22902.6  23083.6  23265.9  23449.6  23634.8  23821.5
 U, KJ/KG         15239.3  15376.2  15514.2  15653.5  15794.0  15935.9  16079.1  16223.9
 G, KJ/KG       -161428.9-162468.8-163509.7-164551.6-165594.5-166638.4-167683.4-168729.4
 S, KJ/(KG)(K)   103.9396 104.0402 104.1409 104.2418 104.3428 104.4440 104.5455 104.6472

 M, (1/n)           2.015    2.015    2.014    2.014    2.014    2.014    2.014    2.014
 (dLV/dLP)t      -1.00031 -1.00034 -1.00037 -1.00040 -1.00044 -1.00048 -1.00052 -1.00056
 (dLV/dLT)p        1.0096   1.0104   1.0113   1.0122   1.0132   1.0143   1.0154   1.0166
 Cp, KJ/(KG)(K)   17.8019  17.9170  18.0383  18.1660  18.3005  18.4421  18.5912  18.7482
 GAMMAs            1.3089   1.3069   1.3049   1.3028   1.3006   1.2984   1.2961   1.2938
 SON VEL,M/SEC     3092.2   3098.6   3105.0   3111.3   3117.4   3123.4   3129.4   3135.2

 TRANSPORT PROPERTIES (GASES ONLY)
   CONDUCTIVITY IN UNITS OF MILLIWATTS/(CM)(K)

 VISC,MILLIPOISE  0.30686  0.30812  0.30939  0.31065  0.31192  0.31318  0.31445  0.31572

  WITH EQUILIBRIUM REACTIONS

 Cp, KJ/(KG)(K)   17.8019  17.9170  18.0383  18.1660  18.3005  18.4421  18.5912  18.7482
 CONDUCTIVITY      8.2428   8.3643   8.4917   8.6255   8.7659   8.9133   9.0682   9.2308
 PRANDTL NUMBER    0.6627   0.6600   0.6572   0.6543   0.6512   0.6480   0.6447   0.6412

  WITH FROZEN REACTIONS

 Cp, KJ/(KG)(K)   16.5820  16.6016  16.6212  16.6406  16.6600  16.6793  16.6985  16.7177
 CONDUCTIVITY      7.2398   7.2778   7.3158   7.3540   7.3922   7.4306   7.4690   7.5075
 PRANDTL NUMBER    0.7028   0.7029   0.7029   0.7029   0.7030   0.7030   0.7030   0.7030

 MASS FRACTIONS

 *H               0.00063  0.00068  0.00074  0.00081  0.00088  0.00096  0.00104  0.00113
 *H2              0.99937  0.99932  0.99926  0.99919  0.99912  0.99904  0.99896  0.99887

  * THERMODYNAMIC PROPERTIES FITTED TO 20000.K

 NOTE. WEIGHT FRACTION OF FUEL IN TOTAL FUELS AND OF OXIDANT IN TOTAL OXIDANTS









               THERMODYNAMIC EQUILIBRIUM PROPERTIES AT ASSIGNED

                           TEMPERATURE AND PRESSURE

 CASE =                

             REACTANT                    WT FRACTION      ENERGY      TEMP
                                          (SEE NOTE)     KJ/KG-MOL      K  
 FUEL        H2                           1.0000000         0.000      0.000
 OXIDANT     H2                           1.0000000         0.000      0.000

 O/F=    1.00000  %FUEL= 50.000000  R,EQ.RATIO= 0.000000  PHI,EQ.RATIO=-1.000000

 THERMODYNAMIC PROPERTIES

 P, BAR           0.05400  0.05400  0.05400  0.05400  0.05400  0.05400  0.05400  0.05400
 T, K             1700.00  1710.00  1720.00  1730.00  1740.00  1750.00  1760.00  1770.00
 RHO, KG/CU M    7.6990-4 7.6537-4 7.6090-4 7.5647-4 7.5210-4 7.4777-4 7.4348-4 7.3925-4
 H, KJ/KG         21319.0  21490.5  21662.8  21835.9  22009.9  22184.8  22360.7  22537.6
 U, KJ/KG         14305.1  14435.1  14565.9  14697.5  14829.9  14963.3  15097.6  15232.8
 G, KJ/KG       -153496.3-154525.1-155554.9-156585.7-157617.6-158650.4-159684.3-160719.1
 S, KJ/(KG)(K)   102.8325 102.9331 103.0335 103.1339 103.2342 103.3344 103.4346 103.5348

 M, (1/n)           2.015    2.015    2.015    2.015    2.015    2.015    2.015    2.015
 (dLV/dLP)t      -1.00016 -1.00017 -1.00019 -1.00021 -1.00023 -1.00025 -1.00027 -1.00030
 (dLV/dLT)p        1.0051   1.0055   1.0060   1.0066   1.0072   1.0078   1.0084   1.0092
 Cp, KJ/(KG)(K)   17.1106  17.1878  17.2690  17.3545  17.4445  17.5392  17.6389  17.7439
 GAMMAs            1.3217   1.3202   1.3186   1.3170   1.3153   1.3135   1.3117   1.3099
 SON VEL,M/SEC     3044.7   3052.0   3059.1   3066.1   3073.1   3079.9   3086.6   3093.3

 TRANSPORT PROPERTIES (GASES ONLY)
   CONDUCTIVITY IN UNITS OF MILLIWATTS/(CM)(K)

 VISC,MILLIPOISE  0.29803  0.29929  0.30055  0.30181  0.30307  0.30433  0.30559  0.30685

  WITH EQUILIBRIUM REACTIONS

 Cp, KJ/(KG)(K)   17.1106  17.1878  17.2690  17.3545  17.4445  17.5392  17.6389  17.7439
 CONDUCTIVITY      7.5069   7.5926   7.6821   7.7756   7.8733   7.9756   8.0827   8.1948
 PRANDTL NUMBER    0.6793   0.6775   0.6756   0.6736   0.6715   0.6693   0.6669   0.6644

  WITH FROZEN REACTIONS

 Cp, KJ/(KG)(K)   16.4427  16.4628  16.4829  16.5028  16.5227  16.5425  16.5623  16.5819
 CONDUCTIVITY      6.9757   7.0132   7.0507   7.0883   7.1260   7.1637   7.2015   7.2394
 PRANDTL NUMBER    0.7025   0.7026   0.7026   0.7027   0.7027   0.7028   0.7028   0.7028

 MASS FRACTIONS

 *H               0.00032  0.00035  0.00038  0.00042  0.00046  0.00050  0.00055  0.00060
 *H2              0.99968  0.99965  0.99962  0.99958  0.99954  0.99950  0.99945  0.99940

  * THERMODYNAMIC PROPERTIES FITTED TO 20000.K

 NOTE. WEIGHT FRACTION OF FUEL IN TOTAL FUELS AND OF OXIDANT IN TOTAL OXIDANTS









               THERMODYNAMIC EQUILIBRIUM PROPERTIES AT ASSIGNED

                           TEMPERATURE AND PRESSURE

 CASE =                

             REACTANT                    WT FRACTION      ENERGY      TEMP
                                          (SEE NOTE)     KJ/KG-MOL      K  
 FUEL        H2                           1.0000000         0.000      0.000
 OXIDANT     H2                           1.0000000         0.000      0.000

 O/F=    1.00000  %FUEL= 50.000000  R,EQ.RATIO= 0.000000  PHI,EQ.RATIO=-1.000000

 THERMODYNAMIC PROPERTIES

 P, BAR           0.05400  0.05400  0.05400  0.05400  0.05400  0.05400  0.05400  0.06000
 T, K             1780.00  1790.00  1800.00  1810.00  1820.00  1830.00  1840.00  1700.00
 RHO, KG/CU M    7.3505-4 7.3090-4 7.2680-4 7.2273-4 7.1871-4 7.1473-4 7.1079-4 8.5546-4
 H, KJ/KG         22715.6  22894.7  23075.0  23256.6  23439.5  23623.8  23809.5  21315.3
 U, KJ/KG         15369.2  15506.6  15645.2  15785.0  15926.0  16068.5  16212.3  14301.6
 G, KJ/KG       -161755.0-162791.8-163829.7-164868.5-165908.4-166949.3-167991.2-152757.3
 S, KJ/(KG)(K)   103.6351 103.7355 103.8359 103.9365 104.0373 104.1383 104.2395 102.3957

 M, (1/n)           2.015    2.014    2.014    2.014    2.014    2.014    2.014    2.015
 (dLV/dLP)t      -1.00033 -1.00035 -1.00039 -1.00042 -1.00046 -1.00049 -1.00054 -1.00015
 (dLV/dLT)p        1.0099   1.0108   1.0116   1.0126   1.0136   1.0147   1.0158   1.0048
 Cp, KJ/(KG)(K)   17.8545  17.9709  18.0935  18.2225  18.3583  18.5013  18.6517  17.0763
 GAMMAs            1.3080   1.3060   1.3039   1.3018   1.2997   1.2975   1.2952   1.3224
 SON VEL,M/SEC     3099.8   3106.2   3112.6   3118.8   3124.9   3130.9   3136.8   3045.5

 TRANSPORT PROPERTIES (GASES ONLY)
   CONDUCTIVITY IN UNITS OF MILLIWATTS/(CM)(K)

 VISC,MILLIPOISE  0.30811  0.30938  0.31064  0.31190  0.31317  0.31443  0.31570  0.29803

  WITH EQUILIBRIUM REACTIONS

 Cp, KJ/(KG)(K)   17.8545  17.9709  18.0935  18.2225  18.3583  18.5013  18.6517  17.0763
 CONDUCTIVITY      8.3123   8.4355   8.5647   8.7003   8.8425   8.9917   9.1484   7.4795
 PRANDTL NUMBER    0.6618   0.6591   0.6562   0.6533   0.6502   0.6470   0.6437   0.6804

  WITH FROZEN REACTIONS

 Cp, KJ/(KG)(K)   16.6015  16.6210  16.6405  16.6598  16.6791  16.6983  16.7175  16.4427
 CONDUCTIVITY      7.2773   7.3154   7.3535   7.3917   7.4299   7.4683   7.5068   6.9755
 PRANDTL NUMBER    0.7029   0.7029   0.7030   0.7030   0.7030   0.7030   0.7031   0.7025

 MASS FRACTIONS

 *H               0.00065  0.00071  0.00077  0.00084  0.00091  0.00099  0.00107  0.00030
 *H2              0.99935  0.99929  0.99923  0.99916  0.99909  0.99901  0.99893  0.99970

  * THERMODYNAMIC PROPERTIES FITTED TO 20000.K

 NOTE. WEIGHT FRACTION OF FUEL IN TOTAL FUELS AND OF OXIDANT IN TOTAL OXIDANTS









               THERMODYNAMIC EQUILIBRIUM PROPERTIES AT ASSIGNED

                           TEMPERATURE AND PRESSURE

 CASE =                

             REACTANT                    WT FRACTION      ENERGY      TEMP
                                          (SEE NOTE)     KJ/KG-MOL      K  
 FUEL        H2                           1.0000000         0.000      0.000
 OXIDANT     H2                           1.0000000         0.000      0.000

 O/F=    1.00000  %FUEL= 50.000000  R,EQ.RATIO= 0.000000  PHI,EQ.RATIO=-1.000000

 THERMODYNAMIC PROPERTIES

 P, BAR           0.06000  0.06000  0.06000  0.06000  0.06000  0.06000  0.06000  0.06000
 T, K             1710.00  1720.00  1730.00  1740.00  1750.00  1760.00  1770.00  1780.00
 RHO, KG/CU M    8.5043-4 8.4546-4 8.4054-4 8.3568-4 8.3087-4 8.2612-4 8.2141-4 8.1675-4
 H, KJ/KG         21486.5  21658.4  21831.0  22004.6  22179.0  22354.4  22530.7  22708.1
 U, KJ/KG         14431.2  14561.6  14692.8  14824.8  14957.7  15091.5  15226.2  15361.9
 G, KJ/KG       -153781.7-154807.2-155833.6-156861.1-157889.6-158919.0-159949.5-160981.0
 S, KJ/(KG)(K)   102.4960 102.5962 102.6964 102.7964 102.8963 102.9962 103.0961 103.1961

 M, (1/n)           2.015    2.015    2.015    2.015    2.015    2.015    2.015    2.015
 (dLV/dLP)t      -1.00017 -1.00018 -1.00020 -1.00022 -1.00024 -1.00026 -1.00028 -1.00031
 (dLV/dLT)p        1.0052   1.0057   1.0062   1.0068   1.0074   1.0080   1.0087   1.0094
 Cp, KJ/(KG)(K)   17.1505  17.2286  17.3107  17.3971  17.4880  17.5836  17.6842  17.7901
 GAMMAs            1.3209   1.3194   1.3178   1.3161   1.3144   1.3127   1.3109   1.3090
 SON VEL,M/SEC     3052.7   3059.9   3067.0   3074.0   3080.9   3087.7   3094.4   3101.0

 TRANSPORT PROPERTIES (GASES ONLY)
   CONDUCTIVITY IN UNITS OF MILLIWATTS/(CM)(K)

 VISC,MILLIPOISE  0.29929  0.30054  0.30180  0.30306  0.30432  0.30558  0.30684  0.30810

  WITH EQUILIBRIUM REACTIONS

 Cp, KJ/(KG)(K)   17.1505  17.2286  17.3107  17.3971  17.4880  17.5836  17.6842  17.7901
 CONDUCTIVITY      7.5627   7.6495   7.7401   7.8347   7.9336   8.0371   8.1454   8.2588
 PRANDTL NUMBER    0.6787   0.6769   0.6750   0.6730   0.6708   0.6686   0.6662   0.6637

  WITH FROZEN REACTIONS

 Cp, KJ/(KG)(K)   16.4628  16.4828  16.5027  16.5226  16.5424  16.5621  16.5818  16.6014
 CONDUCTIVITY      7.0129   7.0505   7.0880   7.1257   7.1634   7.2012   7.2390   7.2769
 PRANDTL NUMBER    0.7026   0.7026   0.7027   0.7027   0.7028   0.7028   0.7029   0.7029

 MASS FRACTIONS

 *H               0.00033  0.00036  0.00040  0.00043  0.00048  0.00052  0.00057  0.00062
 *H2              0.99967  0.99964  0.99960  0.99957  0.99952  0.99948  0.99943  0.99938

  * THERMODYNAMIC PROPERTIES FITTED TO 20000.K

 NOTE. WEIGHT FRACTION OF FUEL IN TOTAL FUELS AND OF OXIDANT IN TOTAL OXIDANTS









               THERMODYNAMIC EQUILIBRIUM PROPERTIES AT ASSIGNED

                           TEMPERATURE AND PRESSURE

 CASE =                

             REACTANT                    WT FRACTION      ENERGY      TEMP
                                          (SEE NOTE)     KJ/KG-MOL      K  
 FUEL        H2                           1.0000000         0.000      0.000
 OXIDANT     H2                           1.0000000         0.000      0.000

 O/F=    1.00000  %FUEL= 50.000000  R,EQ.RATIO= 0.000000  PHI,EQ.RATIO=-1.000000

 THERMODYNAMIC PROPERTIES

 P, BAR           0.06000  0.06000  0.06000  0.06000  0.06000  0.06000  0.06700  0.06700
 T, K             1790.00  1800.00  1810.00  1820.00  1830.00  1840.00  1700.00  1710.00
 RHO, KG/CU M    8.1215-4 8.0759-4 8.0307-4 7.9861-4 7.9418-4 7.8981-4 9.5528-4 9.4967-4
 H, KJ/KG         22886.5  23066.1  23246.9  23429.0  23612.4  23797.2  21311.7  21482.5
 U, KJ/KG         15498.7  15636.6  15775.6  15915.9  16057.4  16200.4  14298.1  14427.4
 G, KJ/KG       -162013.4-163046.9-164081.3-165116.8-166153.3-167190.7-151983.3-153003.2
 S, KJ/(KG)(K)   103.2960 103.3961 103.4963 103.5966 103.6971 103.7978 101.9383 102.0384

 M, (1/n)           2.015    2.014    2.014    2.014    2.014    2.014    2.015    2.015
 (dLV/dLP)t      -1.00034 -1.00037 -1.00040 -1.00043 -1.00047 -1.00051 -1.00014 -1.00016
 (dLV/dLT)p        1.0102   1.0111   1.0119   1.0129   1.0139   1.0150   1.0046   1.0050
 Cp, KJ/(KG)(K)   17.9015  18.0188  18.1421  18.2720  18.4086  18.5522  17.0422  17.1135
 GAMMAs            1.3071   1.3051   1.3031   1.3010   1.2988   1.2966   1.3230   1.3216
 SON VEL,M/SEC     3107.5   3113.9   3120.2   3126.4   3132.5   3138.5   3046.2   3053.5

 TRANSPORT PROPERTIES (GASES ONLY)
   CONDUCTIVITY IN UNITS OF MILLIWATTS/(CM)(K)

 VISC,MILLIPOISE  0.30936  0.31063  0.31189  0.31315  0.31442  0.31568  0.29802  0.29928

  WITH EQUILIBRIUM REACTIONS

 Cp, KJ/(KG)(K)   17.9015  18.0188  18.1421  18.2720  18.4086  18.5522  17.0422  17.1135
 CONDUCTIVITY      8.3776   8.5021   8.6326   8.7694   8.9130   9.0635   7.4522   7.5329
 PRANDTL NUMBER    0.6611   0.6583   0.6555   0.6525   0.6494   0.6462   0.6815   0.6799

  WITH FROZEN REACTIONS

 Cp, KJ/(KG)(K)   16.6209  16.6403  16.6597  16.6789  16.6981  16.7173  16.4426  16.4627
 CONDUCTIVITY      7.3149   7.3529   7.3911   7.4293   7.4676   7.5061   6.9753   7.0127
 PRANDTL NUMBER    0.7029   0.7030   0.7030   0.7030   0.7031   0.7031   0.7025   0.7026

 MASS FRACTIONS

 *H               0.00067  0.00073  0.00080  0.00086  0.00094  0.00102  0.00029  0.00031
 *H2              0.99933  0.99927  0.99920  0.99914  0.99906  0.99898  0.99971  0.99969

  * THERMODYNAMIC PROPERTIES FITTED TO 20000.K

 NOTE. WEIGHT FRACTION OF FUEL IN TOTAL FUELS AND OF OXIDANT IN TOTAL OXIDANTS









               THERMODYNAMIC EQUILIBRIUM PROPERTIES AT ASSIGNED

                           TEMPERATURE AND PRESSURE

 CASE =                

             REACTANT                    WT FRACTION      ENERGY      TEMP
                                          (SEE NOTE)     KJ/KG-MOL      K  
 FUEL        H2                           1.0000000         0.000      0.000
 OXIDANT     H2                           1.0000000         0.000      0.000

 O/F=    1.00000  %FUEL= 50.000000  R,EQ.RATIO= 0.000000  PHI,EQ.RATIO=-1.000000

 THERMODYNAMIC PROPERTIES

 P, BAR           0.06700  0.06700  0.06700  0.06700  0.06700  0.06700  0.06700  0.06700
 T, K             1720.00  1730.00  1740.00  1750.00  1760.00  1770.00  1780.00  1790.00
 RHO, KG/CU M    9.4412-4 9.3863-4 9.3320-4 9.2783-4 9.2252-4 9.1727-4 9.1207-4 9.0693-4
 H, KJ/KG         21654.0  21826.3  21999.4  22173.3  22348.1  22523.9  22700.6  22878.4
 U, KJ/KG         14557.4  14688.2  14819.8  14952.2  15085.4  15219.6  15354.7  15490.8
 G, KJ/KG       -154024.1-155046.0-156068.8-157092.7-158117.6-159143.5-160170.3-161198.2
 S, KJ/(KG)(K)   102.1384 102.2383 102.3380 102.4377 102.5373 102.6369 102.7365 102.8361

 M, (1/n)           2.015    2.015    2.015    2.015    2.015    2.015    2.015    2.015
 (dLV/dLP)t      -1.00017 -1.00019 -1.00021 -1.00022 -1.00025 -1.00027 -1.00029 -1.00032
 (dLV/dLT)p        1.0054   1.0059   1.0064   1.0070   1.0076   1.0082   1.0089   1.0097
 Cp, KJ/(KG)(K)   17.1885  17.2673  17.3501  17.4371  17.5286  17.6249  17.7261  17.8326
 GAMMAs            1.3201   1.3186   1.3170   1.3153   1.3136   1.3119   1.3101   1.3082
 SON VEL,M/SEC     3060.7   3067.9   3074.9   3081.9   3088.8   3095.6   3102.2   3108.8

 TRANSPORT PROPERTIES (GASES ONLY)
   CONDUCTIVITY IN UNITS OF MILLIWATTS/(CM)(K)

 VISC,MILLIPOISE  0.30054  0.30180  0.30306  0.30431  0.30557  0.30683  0.30809  0.30935

  WITH EQUILIBRIUM REACTIONS

 Cp, KJ/(KG)(K)   17.1885  17.2673  17.3501  17.4371  17.5286  17.6249  17.7261  17.8326
 CONDUCTIVITY      7.6171   7.7048   7.7964   7.8920   7.9919   8.0964   8.2057   8.3201
 PRANDTL NUMBER    0.6782   0.6764   0.6744   0.6724   0.6702   0.6679   0.6655   0.6630

  WITH FROZEN REACTIONS

 Cp, KJ/(KG)(K)   16.4827  16.5027  16.5225  16.5423  16.5620  16.5817  16.6012  16.6207
 CONDUCTIVITY      7.0502   7.0878   7.1254   7.1631   7.2008   7.2386   7.2765   7.3144
 PRANDTL NUMBER    0.7026   0.7027   0.7027   0.7028   0.7028   0.7029   0.7029   0.7030

 MASS FRACTIONS

 *H               0.00034  0.00038  0.00041  0.00045  0.00049  0.00054  0.00058  0.00064
 *H2              0.99966  0.99962  0.99959  0.99955  0.99951  0.99946  0.99942  0.99936

  * THERMODYNAMIC PROPERTIES FITTED TO 20000.K

 NOTE. WEIGHT FRACTION OF FUEL IN TOTAL FUELS AND OF OXIDANT IN TOTAL OXIDANTS









               THERMODYNAMIC EQUILIBRIUM PROPERTIES AT ASSIGNED

                           TEMPERATURE AND PRESSURE

 CASE =                

             REACTANT                    WT FRACTION      ENERGY      TEMP
                                          (SEE NOTE)     KJ/KG-MOL      K  
 FUEL        H2                           1.0000000         0.000      0.000
 OXIDANT     H2                           1.0000000         0.000      0.000

 O/F=    1.00000  %FUEL= 50.000000  R,EQ.RATIO= 0.000000  PHI,EQ.RATIO=-1.000000

 THERMODYNAMIC PROPERTIES

 P, BAR           0.06700  0.06700  0.06700  0.06700  0.06700  0.07400  0.07400  0.07400
 T, K             1800.00  1810.00  1820.00  1830.00  1840.00  1700.00  1710.00  1720.00
 RHO, KG/CU M    9.0184-4 8.9680-4 8.9182-4 8.8688-4 8.8200-4 1.0551-3 1.0489-3 1.0428-3
 H, KJ/KG         23057.3  23237.3  23418.6  23601.1  23784.9  21308.6  21479.1  21650.3
 U, KJ/KG         15628.0  15766.3  15905.8  16046.5  16188.5  14295.1  14424.1  14553.8
 G, KJ/KG       -162227.1-163256.9-164287.8-165319.6-166352.5-151286.4-152302.1-153318.9
 S, KJ/(KG)(K)   102.9357 103.0355 103.1353 103.2353 103.3355 101.5265 101.6264 101.7262

 M, (1/n)           2.014    2.014    2.014    2.014    2.014    2.015    2.015    2.015
 (dLV/dLP)t      -1.00035 -1.00038 -1.00041 -1.00044 -1.00048 -1.00014 -1.00015 -1.00016
 (dLV/dLT)p        1.0105   1.0113   1.0122   1.0132   1.0142   1.0043   1.0047   1.0052
 Cp, KJ/(KG)(K)   17.9446  18.0624  18.1863  18.3165  18.4535  17.0131  17.0819  17.1542
 GAMMAs            1.3063   1.3044   1.3023   1.3003   1.2981   1.3236   1.3222   1.3207
 SON VEL,M/SEC     3115.3   3121.7   3128.0   3134.1   3140.2   3046.8   3054.2   3061.4

 TRANSPORT PROPERTIES (GASES ONLY)
   CONDUCTIVITY IN UNITS OF MILLIWATTS/(CM)(K)

 VISC,MILLIPOISE  0.31061  0.31187  0.31314  0.31440  0.31567  0.29802  0.29928  0.30053

  WITH EQUILIBRIUM REACTIONS

 Cp, KJ/(KG)(K)   17.9446  18.0624  18.1863  18.3165  18.4535  17.0131  17.0819  17.1542
 CONDUCTIVITY      8.4399   8.5654   8.6969   8.8348   8.9792   7.4289   7.5075   7.5894
 PRANDTL NUMBER    0.6604   0.6577   0.6548   0.6518   0.6487   0.6825   0.6809   0.6793

  WITH FROZEN REACTIONS

 Cp, KJ/(KG)(K)   16.6401  16.6595  16.6788  16.6979  16.7171  16.4425  16.4626  16.4826
 CONDUCTIVITY      7.3524   7.3905   7.4287   7.4670   7.5053   6.9751   7.0125   7.0500
 PRANDTL NUMBER    0.7030   0.7030   0.7030   0.7031   0.7031   0.7025   0.7026   0.7026

 MASS FRACTIONS

 *H               0.00069  0.00075  0.00082  0.00089  0.00096  0.00027  0.00030  0.00033
 *H2              0.99931  0.99925  0.99918  0.99911  0.99904  0.99973  0.99970  0.99967

  * THERMODYNAMIC PROPERTIES FITTED TO 20000.K

 NOTE. WEIGHT FRACTION OF FUEL IN TOTAL FUELS AND OF OXIDANT IN TOTAL OXIDANTS









               THERMODYNAMIC EQUILIBRIUM PROPERTIES AT ASSIGNED

                           TEMPERATURE AND PRESSURE

 CASE =                

             REACTANT                    WT FRACTION      ENERGY      TEMP
                                          (SEE NOTE)     KJ/KG-MOL      K  
 FUEL        H2                           1.0000000         0.000      0.000
 OXIDANT     H2                           1.0000000         0.000      0.000

 O/F=    1.00000  %FUEL= 50.000000  R,EQ.RATIO= 0.000000  PHI,EQ.RATIO=-1.000000

 THERMODYNAMIC PROPERTIES

 P, BAR           0.07400  0.07400  0.07400  0.07400  0.07400  0.07400  0.07400  0.07400
 T, K             1730.00  1740.00  1750.00  1760.00  1770.00  1780.00  1790.00  1800.00
 RHO, KG/CU M    1.0367-3 1.0307-3 1.0248-3 1.0189-3 1.0131-3 1.0074-3 1.0017-3 9.9610-4
 H, KJ/KG         21822.2  21994.9  22168.4  22342.8  22518.0  22694.3  22871.5  23049.8
 U, KJ/KG         14684.2  14815.4  14947.4  15080.2  15213.9  15348.6  15484.2  15620.8
 G, KJ/KG       -154336.6-155355.4-156375.1-157395.9-158417.6-159440.4-160464.1-161488.8
 S, KJ/(KG)(K)   101.8259 101.9254 102.0249 102.1242 102.2235 102.3228 102.4221 102.5214

 M, (1/n)           2.015    2.015    2.015    2.015    2.015    2.015    2.015    2.015
 (dLV/dLP)t      -1.00018 -1.00020 -1.00021 -1.00023 -1.00025 -1.00028 -1.00030 -1.00033
 (dLV/dLT)p        1.0056   1.0061   1.0066   1.0072   1.0078   1.0085   1.0092   1.0100
 Cp, KJ/(KG)(K)   17.2301  17.3099  17.3936  17.4817  17.5742  17.6715  17.7737  17.8812
 GAMMAs            1.3192   1.3177   1.3161   1.3145   1.3128   1.3110   1.3092   1.3074
 SON VEL,M/SEC     3068.6   3075.8   3082.8   3089.7   3096.5   3103.3   3109.9   3116.5

 TRANSPORT PROPERTIES (GASES ONLY)
   CONDUCTIVITY IN UNITS OF MILLIWATTS/(CM)(K)

 VISC,MILLIPOISE  0.30179  0.30305  0.30431  0.30557  0.30682  0.30808  0.30934  0.31060

  WITH EQUILIBRIUM REACTIONS

 Cp, KJ/(KG)(K)   17.2301  17.3099  17.3936  17.4817  17.5742  17.6715  17.7737  17.8812
 CONDUCTIVITY      7.6747   7.7636   7.8564   7.9533   8.0545   8.1603   8.2710   8.3868
 PRANDTL NUMBER    0.6775   0.6757   0.6737   0.6716   0.6695   0.6672   0.6648   0.6622

  WITH FROZEN REACTIONS

 Cp, KJ/(KG)(K)   16.5026  16.5224  16.5422  16.5619  16.5816  16.6011  16.6206  16.6400
 CONDUCTIVITY      7.0875   7.1251   7.1628   7.2005   7.2382   7.2761   7.3140   7.3520
 PRANDTL NUMBER    0.7027   0.7027   0.7028   0.7028   0.7029   0.7029   0.7030   0.7030

 MASS FRACTIONS

 *H               0.00036  0.00039  0.00043  0.00047  0.00051  0.00056  0.00061  0.00066
 *H2              0.99964  0.99961  0.99957  0.99953  0.99949  0.99944  0.99939  0.99934

  * THERMODYNAMIC PROPERTIES FITTED TO 20000.K

 NOTE. WEIGHT FRACTION OF FUEL IN TOTAL FUELS AND OF OXIDANT IN TOTAL OXIDANTS









               THERMODYNAMIC EQUILIBRIUM PROPERTIES AT ASSIGNED

                           TEMPERATURE AND PRESSURE

 CASE =                

             REACTANT                    WT FRACTION      ENERGY      TEMP
                                          (SEE NOTE)     KJ/KG-MOL      K  
 FUEL        H2                           1.0000000         0.000      0.000
 OXIDANT     H2                           1.0000000         0.000      0.000

 O/F=    1.00000  %FUEL= 50.000000  R,EQ.RATIO= 0.000000  PHI,EQ.RATIO=-1.000000

 THERMODYNAMIC PROPERTIES

 P, BAR           0.07400  0.07400  0.07400  0.07400  0.08250  0.08250  0.08250  0.08250
 T, K             1810.00  1820.00  1830.00  1840.00  1700.00  1710.00  1720.00  1730.00
 RHO, KG/CU M    9.9054-4 9.8503-4 9.7958-4 9.7419-4 1.1763-3 1.1694-3 1.1626-3 1.1558-3
 H, KJ/KG         23229.1  23409.7  23591.4  23774.4  21305.4  21475.6  21646.4  21817.9
 U, KJ/KG         15758.4  15897.2  16037.2  16178.4  14291.9  14420.7  14550.1  14680.1
 G, KJ/KG       -162514.5-163541.2-164568.9-165597.6-150523.8-151535.0-152547.3-153560.5
 S, KJ/(KG)(K)   102.6208 102.7203 102.8199 102.9196 101.0760 101.1758 101.2754 101.3748

 M, (1/n)           2.014    2.014    2.014    2.014    2.015    2.015    2.015    2.015
 (dLV/dLP)t      -1.00036 -1.00039 -1.00042 -1.00046 -1.00013 -1.00014 -1.00015 -1.00017
 (dLV/dLT)p        1.0108   1.0116   1.0125   1.0135   1.0041   1.0045   1.0049   1.0053
 Cp, KJ/(KG)(K)   17.9943  18.1130  18.2379  18.3691  16.9828  17.0491  17.1186  17.1916
 GAMMAs            1.3055   1.3035   1.3015   1.2994   1.3241   1.3228   1.3214   1.3199
 SON VEL,M/SEC     3122.9   3129.3   3135.5   3141.7   3047.4   3054.8   3062.2   3069.4

 TRANSPORT PROPERTIES (GASES ONLY)
   CONDUCTIVITY IN UNITS OF MILLIWATTS/(CM)(K)

 VISC,MILLIPOISE  0.31186  0.31312  0.31439  0.31565  0.29801  0.29927  0.30053  0.30179

  WITH EQUILIBRIUM REACTIONS

 Cp, KJ/(KG)(K)   17.9943  18.1130  18.2379  18.3691  16.9828  17.0491  17.1186  17.1916
 CONDUCTIVITY      8.5080   8.6350   8.7679   8.9072   7.4048   7.4811   7.5606   7.6434
 PRANDTL NUMBER    0.6596   0.6568   0.6539   0.6510   0.6835   0.6820   0.6805   0.6788

  WITH FROZEN REACTIONS

 Cp, KJ/(KG)(K)   16.6593  16.6786  16.6978  16.7169  16.4425  16.4626  16.4826  16.5025
 CONDUCTIVITY      7.3900   7.4282   7.4664   7.5047   6.9749   7.0123   7.0498   7.0873
 PRANDTL NUMBER    0.7030   0.7031   0.7031   0.7031   0.7025   0.7026   0.7026   0.7027

 MASS FRACTIONS

 *H               0.00072  0.00078  0.00084  0.00092  0.00026  0.00028  0.00031  0.00034
 *H2              0.99928  0.99922  0.99916  0.99908  0.99974  0.99972  0.99969  0.99966

  * THERMODYNAMIC PROPERTIES FITTED TO 20000.K

 NOTE. WEIGHT FRACTION OF FUEL IN TOTAL FUELS AND OF OXIDANT IN TOTAL OXIDANTS









               THERMODYNAMIC EQUILIBRIUM PROPERTIES AT ASSIGNED

                           TEMPERATURE AND PRESSURE

 CASE =                

             REACTANT                    WT FRACTION      ENERGY      TEMP
                                          (SEE NOTE)     KJ/KG-MOL      K  
 FUEL        H2                           1.0000000         0.000      0.000
 OXIDANT     H2                           1.0000000         0.000      0.000

 O/F=    1.00000  %FUEL= 50.000000  R,EQ.RATIO= 0.000000  PHI,EQ.RATIO=-1.000000

 THERMODYNAMIC PROPERTIES

 P, BAR           0.08250  0.08250  0.08250  0.08250  0.08250  0.08250  0.08250  0.08250
 T, K             1740.00  1750.00  1760.00  1770.00  1780.00  1790.00  1800.00  1810.00
 RHO, KG/CU M    1.1491-3 1.1425-3 1.1360-3 1.1295-3 1.1231-3 1.1168-3 1.1106-3 1.1044-3
 H, KJ/KG         21990.2  22163.3  22337.2  22512.0  22687.7  22864.3  23041.9  23220.6
 U, KJ/KG         14810.9  14942.5  15074.9  15208.1  15342.2  15477.2  15613.2  15750.2
 G, KJ/KG       -154574.8-155590.0-156606.2-157623.4-158641.6-159660.8-160681.0-161702.2
 S, KJ/(KG)(K)   101.4741 101.5733 101.6724 101.7714 101.8704 101.9694 102.0683 102.1673

 M, (1/n)           2.015    2.015    2.015    2.015    2.015    2.015    2.015    2.015
 (dLV/dLP)t      -1.00019 -1.00020 -1.00022 -1.00024 -1.00026 -1.00029 -1.00031 -1.00034
 (dLV/dLT)p        1.0058   1.0063   1.0068   1.0074   1.0080   1.0087   1.0094   1.0102
 Cp, KJ/(KG)(K)   17.2681  17.3485  17.4329  17.5216  17.6147  17.7126  17.8154  17.9235
 GAMMAs            1.3184   1.3169   1.3153   1.3137   1.3120   1.3102   1.3084   1.3066
 SON VEL,M/SEC     3076.6   3083.7   3090.7   3097.6   3104.4   3111.1   3117.7   3124.2

 TRANSPORT PROPERTIES (GASES ONLY)
   CONDUCTIVITY IN UNITS OF MILLIWATTS/(CM)(K)

 VISC,MILLIPOISE  0.30304  0.30430  0.30556  0.30682  0.30807  0.30933  0.31059  0.31185

  WITH EQUILIBRIUM REACTIONS

 Cp, KJ/(KG)(K)   17.2681  17.3485  17.4329  17.5216  17.6147  17.7126  17.8154  17.9235
 CONDUCTIVITY      7.7295   7.8194   7.9131   8.0110   8.1132   8.2200   8.3316   8.4484
 PRANDTL NUMBER    0.6770   0.6751   0.6732   0.6711   0.6689   0.6666   0.6641   0.6616

  WITH FROZEN REACTIONS

 Cp, KJ/(KG)(K)   16.5224  16.5421  16.5618  16.5815  16.6010  16.6205  16.6399  16.6592
 CONDUCTIVITY      7.1249   7.1625   7.2002   7.2379   7.2757   7.3136   7.3515   7.3895
 PRANDTL NUMBER    0.7027   0.7028   0.7028   0.7029   0.7029   0.7030   0.7030   0.7030

 MASS FRACTIONS

 *H               0.00037  0.00041  0.00044  0.00048  0.00053  0.00057  0.00062  0.00068
 *H2              0.99963  0.99959  0.99956  0.99952  0.99947  0.99943  0.99938  0.99932

  * THERMODYNAMIC PROPERTIES FITTED TO 20000.K

 NOTE. WEIGHT FRACTION OF FUEL IN TOTAL FUELS AND OF OXIDANT IN TOTAL OXIDANTS









               THERMODYNAMIC EQUILIBRIUM PROPERTIES AT ASSIGNED

                           TEMPERATURE AND PRESSURE

 CASE =                

             REACTANT                    WT FRACTION      ENERGY      TEMP
                                          (SEE NOTE)     KJ/KG-MOL      K  
 FUEL        H2                           1.0000000         0.000      0.000
 OXIDANT     H2                           1.0000000         0.000      0.000

 O/F=    1.00000  %FUEL= 50.000000  R,EQ.RATIO= 0.000000  PHI,EQ.RATIO=-1.000000

 THERMODYNAMIC PROPERTIES

 P, BAR           0.08250  0.08250  0.08250  0.09100  0.09100  0.09100  0.09100  0.09100
 T, K             1820.00  1830.00  1840.00  1700.00  1710.00  1720.00  1730.00  1740.00
 RHO, KG/CU M    1.0982-3 1.0922-3 1.0861-3 1.2975-3 1.2899-3 1.2824-3 1.2749-3 1.2676-3
 H, KJ/KG         23400.4  23581.4  23763.6  21302.7  21472.5  21643.1  21814.3  21986.3
 U, KJ/KG         15888.3  16027.5  16167.9  14289.3  14417.7  14546.8  14676.6  14807.1
 G, KJ/KG       -162724.4-163747.5-164771.7-149836.0-150843.2-151851.4-152860.6-153870.7
 S, KJ/(KG)(K)   102.2664 102.3655 102.4648 100.6698 100.7694 100.8689 100.9681 101.0672

 M, (1/n)           2.014    2.014    2.014    2.015    2.015    2.015    2.015    2.015
 (dLV/dLP)t      -1.00037 -1.00040 -1.00043 -1.00012 -1.00013 -1.00015 -1.00016 -1.00018
 (dLV/dLT)p        1.0110   1.0119   1.0128   1.0039   1.0043   1.0046   1.0051   1.0055
 Cp, KJ/(KG)(K)   18.0370  18.1562  18.2815  16.9569  17.0210  17.0881  17.1585  17.2324
 GAMMAs            1.3047   1.3027   1.3007   1.3246   1.3233   1.3219   1.3205   1.3191
 SON VEL,M/SEC     3130.7   3137.0   3143.2   3048.0   3055.4   3062.8   3070.1   3077.3

 TRANSPORT PROPERTIES (GASES ONLY)
   CONDUCTIVITY IN UNITS OF MILLIWATTS/(CM)(K)

 VISC,MILLIPOISE  0.31311  0.31437  0.31563  0.29801  0.29927  0.30052  0.30178  0.30304

  WITH EQUILIBRIUM REACTIONS

 Cp, KJ/(KG)(K)   18.0370  18.1562  18.2815  16.9569  17.0210  17.0881  17.1585  17.2324
 CONDUCTIVITY      8.5706   8.6985   8.8324   7.3840   7.4585   7.5360   7.6165   7.7004
 PRANDTL NUMBER    0.6589   0.6562   0.6533   0.6844   0.6829   0.6814   0.6798   0.6782

  WITH FROZEN REACTIONS

 Cp, KJ/(KG)(K)   16.6784  16.6976  16.7167  16.4424  16.4625  16.4825  16.5024  16.5223
 CONDUCTIVITY      7.4276   7.4658   7.5040   6.9748   7.0122   7.0496   7.0871   7.1246
 PRANDTL NUMBER    0.7031   0.7031   0.7031   0.7025   0.7026   0.7026   0.7027   0.7028

 MASS FRACTIONS

 *H               0.00074  0.00080  0.00087  0.00024  0.00027  0.00029  0.00032  0.00035
 *H2              0.99926  0.99920  0.99913  0.99976  0.99973  0.99971  0.99968  0.99965

  * THERMODYNAMIC PROPERTIES FITTED TO 20000.K

 NOTE. WEIGHT FRACTION OF FUEL IN TOTAL FUELS AND OF OXIDANT IN TOTAL OXIDANTS









               THERMODYNAMIC EQUILIBRIUM PROPERTIES AT ASSIGNED

                           TEMPERATURE AND PRESSURE

 CASE =                

             REACTANT                    WT FRACTION      ENERGY      TEMP
                                          (SEE NOTE)     KJ/KG-MOL      K  
 FUEL        H2                           1.0000000         0.000      0.000
 OXIDANT     H2                           1.0000000         0.000      0.000

 O/F=    1.00000  %FUEL= 50.000000  R,EQ.RATIO= 0.000000  PHI,EQ.RATIO=-1.000000

 THERMODYNAMIC PROPERTIES

 P, BAR           0.09100  0.09100  0.09100  0.09100  0.09100  0.09100  0.09100  0.09100
 T, K             1750.00  1760.00  1770.00  1780.00  1790.00  1800.00  1810.00  1820.00
 RHO, KG/CU M    1.2603-3 1.2531-3 1.2459-3 1.2389-3 1.2319-3 1.2250-3 1.2182-3 1.2114-3
 H, KJ/KG         22159.0  22332.5  22506.8  22682.0  22858.1  23035.2  23213.3  23392.5
 U, KJ/KG         14938.3  15070.3  15203.1  15336.7  15471.2  15606.7  15743.2  15880.6
 G, KJ/KG       -154881.9-155894.1-156907.2-157921.4-158936.5-159952.6-160969.7-161987.7
 S, KJ/(KG)(K)   101.1662 101.2651 101.3639 101.4626 101.5612 101.6599 101.7586 101.8573

 M, (1/n)           2.015    2.015    2.015    2.015    2.015    2.015    2.015    2.014
 (dLV/dLP)t      -1.00019 -1.00021 -1.00023 -1.00025 -1.00027 -1.00030 -1.00032 -1.00035
 (dLV/dLT)p        1.0060   1.0065   1.0071   1.0077   1.0083   1.0090   1.0097   1.0105
 Cp, KJ/(KG)(K)   17.3098  17.3911  17.4765  17.5661  17.6602  17.7591  17.8628  17.9718
 GAMMAs            1.3176   1.3160   1.3145   1.3128   1.3111   1.3094   1.3076   1.3057
 SON VEL,M/SEC     3084.5   3091.5   3098.5   3105.3   3112.1   3118.8   3125.4   3131.9

 TRANSPORT PROPERTIES (GASES ONLY)
   CONDUCTIVITY IN UNITS OF MILLIWATTS/(CM)(K)

 VISC,MILLIPOISE  0.30429  0.30555  0.30681  0.30807  0.30932  0.31058  0.31184  0.31310

  WITH EQUILIBRIUM REACTIONS

 Cp, KJ/(KG)(K)   17.3098  17.3911  17.4765  17.5661  17.6602  17.7591  17.8628  17.9718
 CONDUCTIVITY      7.7877   7.8787   7.9737   8.0728   8.1763   8.2844   8.3973   8.5155
 PRANDTL NUMBER    0.6764   0.6745   0.6725   0.6703   0.6681   0.6658   0.6633   0.6608

  WITH FROZEN REACTIONS

 Cp, KJ/(KG)(K)   16.5421  16.5617  16.5814  16.6009  16.6204  16.6397  16.6591  16.6783
 CONDUCTIVITY      7.1622   7.1999   7.2376   7.2754   7.3132   7.3511   7.3891   7.4271
 PRANDTL NUMBER    0.7028   0.7029   0.7029   0.7029   0.7030   0.7030   0.7031   0.7031

 MASS FRACTIONS

 *H               0.00039  0.00042  0.00046  0.00050  0.00055  0.00059  0.00065  0.00070
 *H2              0.99961  0.99958  0.99954  0.99950  0.99945  0.99941  0.99935  0.99930

  * THERMODYNAMIC PROPERTIES FITTED TO 20000.K

 NOTE. WEIGHT FRACTION OF FUEL IN TOTAL FUELS AND OF OXIDANT IN TOTAL OXIDANTS









               THERMODYNAMIC EQUILIBRIUM PROPERTIES AT ASSIGNED

                           TEMPERATURE AND PRESSURE

 CASE =                

             REACTANT                    WT FRACTION      ENERGY      TEMP
                                          (SEE NOTE)     KJ/KG-MOL      K  
 FUEL        H2                           1.0000000         0.000      0.000
 OXIDANT     H2                           1.0000000         0.000      0.000

 O/F=    1.00000  %FUEL= 50.000000  R,EQ.RATIO= 0.000000  PHI,EQ.RATIO=-1.000000

 THERMODYNAMIC PROPERTIES

 P, BAR           0.09100  0.09100  0.10000  0.10000  0.10000  0.10000  0.10000  0.10000
 T, K             1830.00  1840.00  1700.00  1710.00  1720.00  1730.00  1740.00  1750.00
 RHO, KG/CU M    1.2047-3 1.1981-3 1.4259-3 1.4175-3 1.4092-3 1.4010-3 1.3929-3 1.3849-3
 H, KJ/KG         23572.8  23754.3  21300.1  21469.8  21640.0  21811.0  21982.6  22155.0
 U, KJ/KG         16019.2  16158.9  14286.8  14415.1  14543.9  14673.4  14803.6  14934.4
 G, KJ/KG       -163006.8-164026.9-149174.6-150177.9-151182.1-152187.4-153193.7-154200.9
 S, KJ/(KG)(K)   101.9561 102.0550 100.2793 100.3787 100.4780 100.5771 100.6760 100.7748

 M, (1/n)           2.014    2.014    2.015    2.015    2.015    2.015    2.015    2.015
 (dLV/dLP)t      -1.00038 -1.00041 -1.00012 -1.00013 -1.00014 -1.00015 -1.00017 -1.00018
 (dLV/dLT)p        1.0113   1.0122   1.0037   1.0041   1.0044   1.0048   1.0053   1.0057
 Cp, KJ/(KG)(K)   18.0863  18.2065  16.9332  16.9952  17.0602  17.1282  17.1996  17.2744
 GAMMAs            1.3038   1.3019   1.3251   1.3238   1.3225   1.3211   1.3197   1.3182
 SON VEL,M/SEC     3138.3   3144.6   3048.5   3056.0   3063.4   3070.7   3078.0   3085.2

 TRANSPORT PROPERTIES (GASES ONLY)
   CONDUCTIVITY IN UNITS OF MILLIWATTS/(CM)(K)

 VISC,MILLIPOISE  0.31436  0.31562  0.29801  0.29926  0.30052  0.30178  0.30303  0.30429

  WITH EQUILIBRIUM REACTIONS

 Cp, KJ/(KG)(K)   18.0863  18.2065  16.9332  16.9952  17.0602  17.1282  17.1996  17.2744
 CONDUCTIVITY      8.6391   8.7684   7.3650   7.4378   7.5134   7.5920   7.6737   7.7587
 PRANDTL NUMBER    0.6581   0.6553   0.6852   0.6838   0.6824   0.6808   0.6792   0.6775

  WITH FROZEN REACTIONS

 Cp, KJ/(KG)(K)   16.6975  16.7165  16.4424  16.4625  16.4825  16.5024  16.5222  16.5420
 CONDUCTIVITY      7.4653   7.5035   6.9746   7.0120   7.0494   7.0869   7.1244   7.1620
 PRANDTL NUMBER    0.7031   0.7032   0.7025   0.7026   0.7027   0.7027   0.7028   0.7028

 MASS FRACTIONS

 *H               0.00076  0.00083  0.00023  0.00026  0.00028  0.00031  0.00034  0.00037
 *H2              0.99924  0.99917  0.99977  0.99974  0.99972  0.99969  0.99966  0.99963

  * THERMODYNAMIC PROPERTIES FITTED TO 20000.K

 NOTE. WEIGHT FRACTION OF FUEL IN TOTAL FUELS AND OF OXIDANT IN TOTAL OXIDANTS









               THERMODYNAMIC EQUILIBRIUM PROPERTIES AT ASSIGNED

                           TEMPERATURE AND PRESSURE

 CASE =                

             REACTANT                    WT FRACTION      ENERGY      TEMP
                                          (SEE NOTE)     KJ/KG-MOL      K  
 FUEL        H2                           1.0000000         0.000      0.000
 OXIDANT     H2                           1.0000000         0.000      0.000

 O/F=    1.00000  %FUEL= 50.000000  R,EQ.RATIO= 0.000000  PHI,EQ.RATIO=-1.000000

 THERMODYNAMIC PROPERTIES

 P, BAR           0.10000  0.10000  0.10000  0.10000  0.10000  0.10000  0.10000  0.10000
 T, K             1760.00  1770.00  1780.00  1790.00  1800.00  1810.00  1820.00  1830.00
 RHO, KG/CU M    1.3770-3 1.3692-3 1.3614-3 1.3538-3 1.3462-3 1.3387-3 1.3313-3 1.3239-3
 H, KJ/KG         22328.1  22502.1  22676.8  22852.5  23029.1  23206.7  23385.3  23564.9
 U, KJ/KG         15066.1  15198.5  15331.7  15465.8  15600.8  15736.7  15873.6  16011.6
 G, KJ/KG       -155209.2-156218.4-157228.6-158239.8-159252.0-160265.2-161279.3-162294.4
 S, KJ/(KG)(K)   100.8735 100.9720 101.0705 101.1689 101.2673 101.3656 101.4640 101.5625

 M, (1/n)           2.015    2.015    2.015    2.015    2.015    2.015    2.015    2.014
 (dLV/dLP)t      -1.00020 -1.00022 -1.00024 -1.00026 -1.00028 -1.00031 -1.00033 -1.00036
 (dLV/dLT)p        1.0062   1.0067   1.0073   1.0079   1.0086   1.0093   1.0100   1.0108
 Cp, KJ/(KG)(K)   17.3529  17.4352  17.5216  17.6122  17.7074  17.8073  17.9121  18.0222
 GAMMAs            1.3167   1.3152   1.3136   1.3119   1.3102   1.3085   1.3067   1.3049
 SON VEL,M/SEC     3092.3   3099.3   3106.2   3113.0   3119.8   3126.4   3133.0   3139.4

 TRANSPORT PROPERTIES (GASES ONLY)
   CONDUCTIVITY IN UNITS OF MILLIWATTS/(CM)(K)

 VISC,MILLIPOISE  0.30554  0.30680  0.30806  0.30931  0.31057  0.31183  0.31309  0.31435

  WITH EQUILIBRIUM REACTIONS

 Cp, KJ/(KG)(K)   17.3529  17.4352  17.5216  17.6122  17.7074  17.8073  17.9121  18.0222
 CONDUCTIVITY      7.8472   7.9395   8.0358   8.1362   8.2410   8.3505   8.4650   8.5846
 PRANDTL NUMBER    0.6757   0.6737   0.6717   0.6696   0.6673   0.6650   0.6625   0.6599

  WITH FROZEN REACTIONS

 Cp, KJ/(KG)(K)   16.5617  16.5813  16.6008  16.6203  16.6396  16.6589  16.6782  16.6973
 CONDUCTIVITY      7.1996   7.2373   7.2751   7.3129   7.3507   7.3887   7.4267   7.4648
 PRANDTL NUMBER    0.7029   0.7029   0.7030   0.7030   0.7030   0.7031   0.7031   0.7031

 MASS FRACTIONS

 *H               0.00040  0.00044  0.00048  0.00052  0.00057  0.00062  0.00067  0.00073
 *H2              0.99960  0.99956  0.99952  0.99948  0.99943  0.99938  0.99933  0.99927

  * THERMODYNAMIC PROPERTIES FITTED TO 20000.K

 NOTE. WEIGHT FRACTION OF FUEL IN TOTAL FUELS AND OF OXIDANT IN TOTAL OXIDANTS









               THERMODYNAMIC EQUILIBRIUM PROPERTIES AT ASSIGNED

                           TEMPERATURE AND PRESSURE

 CASE =                

             REACTANT                    WT FRACTION      ENERGY      TEMP
                                          (SEE NOTE)     KJ/KG-MOL      K  
 FUEL        H2                           1.0000000         0.000      0.000
 OXIDANT     H2                           1.0000000         0.000      0.000

 O/F=    1.00000  %FUEL= 50.000000  R,EQ.RATIO= 0.000000  PHI,EQ.RATIO=-1.000000

 THERMODYNAMIC PROPERTIES

 P, BAR           0.10000
 T, K             1840.00
 RHO, KG/CU M    1.3166-3
 H, KJ/KG         23745.7
 U, KJ/KG         16150.7
 G, KJ/KG       -163310.6
 S, KJ/(KG)(K)   101.6610

 M, (1/n)           2.014
 (dLV/dLP)t      -1.00039
 (dLV/dLT)p        1.0116
 Cp, KJ/(KG)(K)   18.1377
 GAMMAs            1.3030
 SON VEL,M/SEC     3145.8

 TRANSPORT PROPERTIES (GASES ONLY)
   CONDUCTIVITY IN UNITS OF MILLIWATTS/(CM)(K)

 VISC,MILLIPOISE  0.31561

  WITH EQUILIBRIUM REACTIONS

 Cp, KJ/(KG)(K)   18.1377
 CONDUCTIVITY      8.7096
 PRANDTL NUMBER    0.6573

  WITH FROZEN REACTIONS

 Cp, KJ/(KG)(K)   16.7164
 CONDUCTIVITY      7.5030
 PRANDTL NUMBER    0.7032

 MASS FRACTIONS

 *H               0.00079
 *H2              0.99921

  * THERMODYNAMIC PROPERTIES FITTED TO 20000.K

 NOTE. WEIGHT FRACTION OF FUEL IN TOTAL FUELS AND OF OXIDANT IN TOTAL OXIDANTS



  
