
 *******************************************************************************

         NASA-GLENN CHEMICAL EQUILIBRIUM PROGRAM CEA2, MAY 21, 2004
                   BY  BONNIE MCBRIDE AND SANFORD GORDON
      REFS: NASA RP-1311, PART I, 1994 AND NASA RP-1311, PART II, 1996

 *******************************************************************************



  prob tp ions
  p,bar= 2.5,2.8,3.1,3.5,3.9,4.4,4.9,5.4,6.0,6.7,7.4,8.25,9.1,10.0,11.0
  t,k= 7850,7860,7870,7880,7890,7900,7910,7920,7930,7940,7950,7960,7970,7980,7990
  
  
  reac
  fuel H2                wt%=100.0000
  oxid H2                wt%=100.0000
  
  output short
  
  output massf
  
  output siunits
  
  output transport
  
 end





               THERMODYNAMIC EQUILIBRIUM PROPERTIES AT ASSIGNED

                           TEMPERATURE AND PRESSURE

 CASE =                

             REACTANT                    WT FRACTION      ENERGY      TEMP
                                          (SEE NOTE)     KJ/KG-MOL      K  
 FUEL        H2                           1.0000000         0.000      0.000
 OXIDANT     H2                           1.0000000         0.000      0.000

 O/F=    1.00000  %FUEL= 50.000000  R,EQ.RATIO= 0.000000  PHI,EQ.RATIO=-1.000000

 THERMODYNAMIC PROPERTIES

 P, BAR            2.5000   2.5000   2.5000   2.5000   2.5000   2.5000   2.5000   2.5000
 T, K             7850.00  7860.00  7870.00  7880.00  7890.00  7900.00  7910.00  7920.00
 RHO, KG/CU M    3.8602-3 3.8552-3 3.8502-3 3.8452-3 3.8403-3 3.8353-3 3.8304-3 3.8254-3
 H, KJ/KG        373243.6 373479.2 373715.0 373951.1 374187.4 374424.0 374660.9 374898.0
 U, KJ/KG        308480.8 308632.2 308783.8 308935.7 309087.8 309240.1 309392.8 309545.6
 G, KJ/KG       -991782.7-993521.8-995261.1-997000.7-998740.7-1000481.-1002221.-1003962.
 S, KJ/(KG)(K)   173.8887 173.9187 173.9487 173.9787 174.0086 174.0386 174.0686 174.0985

 M, (1/n)           1.008    1.008    1.008    1.008    1.008    1.008    1.008    1.008
 (dLV/dLP)t      -1.00162 -1.00162 -1.00162 -1.00162 -1.00162 -1.00162 -1.00162 -1.00162
 (dLV/dLT)p        1.0205   1.0206   1.0207   1.0208   1.0209   1.0210   1.0212   1.0213
 Cp, KJ/(KG)(K)   23.5440  23.5693  23.5949  23.6209  23.6473  23.6740  23.7010  23.7285
 GAMMAs            1.5706   1.5699   1.5691   1.5683   1.5675   1.5667   1.5659   1.5651
 SON VEL,M/SEC    10085.6  10089.7  10093.7  10097.8  10101.8  10105.8  10109.7  10113.7

 TRANSPORT PROPERTIES (GASES ONLY)
   CONDUCTIVITY IN UNITS OF MILLIWATTS/(CM)(K)

 VISC,MILLIPOISE  0.80700  0.80782  0.80865  0.80947  0.81029  0.81111  0.81193  0.81274

  WITH EQUILIBRIUM REACTIONS

 Cp, KJ/(KG)(K)   23.5440  23.5693  23.5949  23.6209  23.6473  23.6740  23.7010  23.7285
 CONDUCTIVITY     26.2815  26.3095  26.3375  26.3657  26.3939  26.4223  26.4508  26.4794
 PRANDTL NUMBER    0.7229   0.7237   0.7244   0.7252   0.7260   0.7267   0.7275   0.7283

  WITH FROZEN REACTIONS

 Cp, KJ/(KG)(K)   20.6600  20.6604  20.6607  20.6611  20.6614  20.6618  20.6621  20.6625
 CONDUCTIVITY     25.1392  25.1675  25.1958  25.2240  25.2521  25.2803  25.3083  25.3364
 PRANDTL NUMBER    0.6632   0.6632   0.6631   0.6630   0.6630   0.6629   0.6629   0.6628

 MASS FRACTIONS

 *H               0.99676  0.99676  0.99677  0.99677  0.99677  0.99677  0.99677  0.99677
 *H+              0.00116  0.00118  0.00119  0.00121  0.00123  0.00125  0.00127  0.00128
 *H2              0.00207  0.00205  0.00204  0.00202  0.00200  0.00198  0.00196  0.00195

  * THERMODYNAMIC PROPERTIES FITTED TO 20000.K

 NOTE. WEIGHT FRACTION OF FUEL IN TOTAL FUELS AND OF OXIDANT IN TOTAL OXIDANTS









               THERMODYNAMIC EQUILIBRIUM PROPERTIES AT ASSIGNED

                           TEMPERATURE AND PRESSURE

 CASE =                

             REACTANT                    WT FRACTION      ENERGY      TEMP
                                          (SEE NOTE)     KJ/KG-MOL      K  
 FUEL        H2                           1.0000000         0.000      0.000
 OXIDANT     H2                           1.0000000         0.000      0.000

 O/F=    1.00000  %FUEL= 50.000000  R,EQ.RATIO= 0.000000  PHI,EQ.RATIO=-1.000000

 THERMODYNAMIC PROPERTIES

 P, BAR            2.5000   2.5000   2.5000   2.5000   2.5000   2.5000   2.5000   2.8000
 T, K             7930.00  7940.00  7950.00  7960.00  7970.00  7980.00  7990.00  7850.00
 RHO, KG/CU M    3.8205-3 3.8156-3 3.8107-3 3.8058-3 3.8009-3 3.7960-3 3.7912-3 4.3243-3
 H, KJ/KG        375135.5 375373.2 375611.2 375849.4 376088.0 376326.8 376566.0 373092.6
 U, KJ/KG        309698.8 309852.2 310005.9 310159.8 310314.1 310468.6 310623.4 308342.0
 G, KJ/KG       -1005703.-1007445.-1009187.-1010929.-1012671.-1014414.-1016157.-984443.9
 S, KJ/(KG)(K)   174.1285 174.1584 174.1884 174.2183 174.2483 174.2782 174.3082 172.9346

 M, (1/n)           1.008    1.008    1.008    1.008    1.007    1.007    1.007    1.008
 (dLV/dLP)t      -1.00162 -1.00162 -1.00162 -1.00162 -1.00162 -1.00162 -1.00162 -1.00171
 (dLV/dLT)p        1.0214   1.0215   1.0216   1.0218   1.0219   1.0220   1.0222   1.0207
 Cp, KJ/(KG)(K)   23.7563  23.7844  23.8129  23.8418  23.8710  23.9006  23.9306  23.4591
 GAMMAs            1.5643   1.5635   1.5627   1.5619   1.5610   1.5602   1.5594   1.5738
 SON VEL,M/SEC    10117.6  10121.4  10125.3  10129.1  10132.9  10136.7  10140.4  10094.7

 TRANSPORT PROPERTIES (GASES ONLY)
   CONDUCTIVITY IN UNITS OF MILLIWATTS/(CM)(K)

 VISC,MILLIPOISE  0.81355  0.81436  0.81517  0.81598  0.81678  0.81758  0.81838  0.80775

  WITH EQUILIBRIUM REACTIONS

 Cp, KJ/(KG)(K)   23.7563  23.7844  23.8129  23.8418  23.8710  23.9006  23.9306  23.4591
 CONDUCTIVITY     26.5081  26.5369  26.5658  26.5948  26.6239  26.6530  26.6823  26.3443
 PRANDTL NUMBER    0.7291   0.7299   0.7307   0.7315   0.7323   0.7332   0.7340   0.7193

  WITH FROZEN REACTIONS

 Cp, KJ/(KG)(K)   20.6629  20.6632  20.6636  20.6639  20.6643  20.6647  20.6651  20.6587
 CONDUCTIVITY     25.3644  25.3923  25.4202  25.4481  25.4759  25.5036  25.5313  25.1513
 PRANDTL NUMBER    0.6628   0.6627   0.6626   0.6626   0.6625   0.6625   0.6624   0.6635

 MASS FRACTIONS

 *H               0.99676  0.99676  0.99676  0.99676  0.99676  0.99675  0.99675  0.99658
 *H+              0.00130  0.00132  0.00134  0.00136  0.00138  0.00140  0.00142  0.00110
 *H2              0.00193  0.00191  0.00189  0.00188  0.00186  0.00185  0.00183  0.00232

  * THERMODYNAMIC PROPERTIES FITTED TO 20000.K

 NOTE. WEIGHT FRACTION OF FUEL IN TOTAL FUELS AND OF OXIDANT IN TOTAL OXIDANTS









               THERMODYNAMIC EQUILIBRIUM PROPERTIES AT ASSIGNED

                           TEMPERATURE AND PRESSURE

 CASE =                

             REACTANT                    WT FRACTION      ENERGY      TEMP
                                          (SEE NOTE)     KJ/KG-MOL      K  
 FUEL        H2                           1.0000000         0.000      0.000
 OXIDANT     H2                           1.0000000         0.000      0.000

 O/F=    1.00000  %FUEL= 50.000000  R,EQ.RATIO= 0.000000  PHI,EQ.RATIO=-1.000000

 THERMODYNAMIC PROPERTIES

 P, BAR            2.8000   2.8000   2.8000   2.8000   2.8000   2.8000   2.8000   2.8000
 T, K             7860.00  7870.00  7880.00  7890.00  7900.00  7910.00  7920.00  7930.00
 RHO, KG/CU M    4.3187-3 4.3131-3 4.3075-3 4.3019-3 4.2963-3 4.2908-3 4.2853-3 4.2797-3
 H, KJ/KG        373327.3 373562.2 373797.4 374032.8 374268.5 374504.4 374740.5 374976.9
 U, KJ/KG        308492.5 308643.2 308794.2 308945.4 309096.8 309248.5 309400.4 309552.5
 G, KJ/KG       -986173.4-987903.2-989633.3-991363.7-993094.4-994825.4-996556.7-998288.2
 S, KJ/(KG)(K)   172.9645 172.9943 173.0242 173.0541 173.0839 173.1137 173.1436 173.1734

 M, (1/n)           1.008    1.008    1.008    1.008    1.008    1.008    1.008    1.008
 (dLV/dLP)t      -1.00171 -1.00171 -1.00170 -1.00170 -1.00170 -1.00170 -1.00170 -1.00170
 (dLV/dLT)p        1.0207   1.0208   1.0209   1.0210   1.0211   1.0212   1.0213   1.0214
 Cp, KJ/(KG)(K)   23.4822  23.5055  23.5293  23.5533  23.5778  23.6025  23.6276  23.6531
 GAMMAs            1.5731   1.5723   1.5716   1.5709   1.5701   1.5694   1.5686   1.5679
 SON VEL,M/SEC    10099.0  10103.2  10107.4  10111.6  10115.7  10119.9  10124.0  10128.0

 TRANSPORT PROPERTIES (GASES ONLY)
   CONDUCTIVITY IN UNITS OF MILLIWATTS/(CM)(K)

 VISC,MILLIPOISE  0.80859  0.80942  0.81025  0.81108  0.81190  0.81273  0.81355  0.81437

  WITH EQUILIBRIUM REACTIONS

 Cp, KJ/(KG)(K)   23.4822  23.5055  23.5293  23.5533  23.5778  23.6025  23.6276  23.6531
 CONDUCTIVITY     26.3712  26.3983  26.4255  26.4528  26.4803  26.5078  26.5355  26.5632
 PRANDTL NUMBER    0.7200   0.7207   0.7214   0.7222   0.7229   0.7237   0.7244   0.7252

  WITH FROZEN REACTIONS

 Cp, KJ/(KG)(K)   20.6590  20.6594  20.6597  20.6600  20.6604  20.6607  20.6610  20.6614
 CONDUCTIVITY     25.1797  25.2081  25.2364  25.2648  25.2931  25.3213  25.3495  25.3777
 PRANDTL NUMBER    0.6634   0.6634   0.6633   0.6632   0.6632   0.6631   0.6631   0.6630

 MASS FRACTIONS

 *H               0.99658  0.99659  0.99659  0.99659  0.99660  0.99660  0.99660  0.99661
 *H+              0.00111  0.00113  0.00115  0.00116  0.00118  0.00120  0.00121  0.00123
 *H2              0.00230  0.00228  0.00226  0.00224  0.00222  0.00220  0.00218  0.00216

  * THERMODYNAMIC PROPERTIES FITTED TO 20000.K

 NOTE. WEIGHT FRACTION OF FUEL IN TOTAL FUELS AND OF OXIDANT IN TOTAL OXIDANTS









               THERMODYNAMIC EQUILIBRIUM PROPERTIES AT ASSIGNED

                           TEMPERATURE AND PRESSURE

 CASE =                

             REACTANT                    WT FRACTION      ENERGY      TEMP
                                          (SEE NOTE)     KJ/KG-MOL      K  
 FUEL        H2                           1.0000000         0.000      0.000
 OXIDANT     H2                           1.0000000         0.000      0.000

 O/F=    1.00000  %FUEL= 50.000000  R,EQ.RATIO= 0.000000  PHI,EQ.RATIO=-1.000000

 THERMODYNAMIC PROPERTIES

 P, BAR            2.8000   2.8000   2.8000   2.8000   2.8000   2.8000   3.1000   3.1000
 T, K             7940.00  7950.00  7960.00  7970.00  7980.00  7990.00  7850.00  7860.00
 RHO, KG/CU M    4.2742-3 4.2688-3 4.2633-3 4.2578-3 4.2524-3 4.2469-3 4.7885-3 4.7822-3
 H, KJ/KG        375213.6 375450.5 375687.7 375925.1 376162.9 376400.9 372955.6 373189.6
 U, KJ/KG        309704.9 309857.5 310010.4 310163.6 310317.0 310470.6 308216.6 308366.4
 G, KJ/KG       -1000020.-1001752.-1003485.-1005218.-1006951.-1008684.-977854.0-979574.9
 S, KJ/(KG)(K)   173.2032 173.2331 173.2629 173.2927 173.3225 173.3523 172.0777 172.1075

 M, (1/n)           1.008    1.008    1.008    1.008    1.008    1.008    1.008    1.008
 (dLV/dLP)t      -1.00170 -1.00169 -1.00169 -1.00169 -1.00169 -1.00169 -1.00181 -1.00180
 (dLV/dLT)p        1.0215   1.0216   1.0217   1.0218   1.0219   1.0221   1.0209   1.0210
 Cp, KJ/(KG)(K)   23.6789  23.7051  23.7317  23.7585  23.7858  23.8134  23.3945  23.4155
 GAMMAs            1.5671   1.5663   1.5655   1.5648   1.5640   1.5632   1.5764   1.5757
 SON VEL,M/SEC    10132.1  10136.1  10140.1  10144.0  10147.9  10151.8  10102.1  10106.5

 TRANSPORT PROPERTIES (GASES ONLY)
   CONDUCTIVITY IN UNITS OF MILLIWATTS/(CM)(K)

 VISC,MILLIPOISE  0.81519  0.81600  0.81682  0.81763  0.81844  0.81925  0.80843  0.80927

  WITH EQUILIBRIUM REACTIONS

 Cp, KJ/(KG)(K)   23.6789  23.7051  23.7317  23.7585  23.7858  23.8134  23.3945  23.4155
 CONDUCTIVITY     26.5911  26.6191  26.6472  26.6754  26.7037  26.7321  26.4096  26.4355
 PRANDTL NUMBER    0.7259   0.7267   0.7274   0.7282   0.7290   0.7298   0.7161   0.7168

  WITH FROZEN REACTIONS

 Cp, KJ/(KG)(K)   20.6617  20.6621  20.6624  20.6627  20.6631  20.6634  20.6576  20.6579
 CONDUCTIVITY     25.4058  25.4339  25.4619  25.4899  25.5179  25.5458  25.1619  25.1904
 PRANDTL NUMBER    0.6630   0.6629   0.6628   0.6628   0.6627   0.6627   0.6637   0.6637

 MASS FRACTIONS

 *H               0.99661  0.99661  0.99661  0.99661  0.99661  0.99661  0.99638  0.99639
 *H+              0.00125  0.00126  0.00128  0.00130  0.00132  0.00134  0.00104  0.00106
 *H2              0.00214  0.00212  0.00210  0.00208  0.00207  0.00205  0.00257  0.00255

  * THERMODYNAMIC PROPERTIES FITTED TO 20000.K

 NOTE. WEIGHT FRACTION OF FUEL IN TOTAL FUELS AND OF OXIDANT IN TOTAL OXIDANTS









               THERMODYNAMIC EQUILIBRIUM PROPERTIES AT ASSIGNED

                           TEMPERATURE AND PRESSURE

 CASE =                

             REACTANT                    WT FRACTION      ENERGY      TEMP
                                          (SEE NOTE)     KJ/KG-MOL      K  
 FUEL        H2                           1.0000000         0.000      0.000
 OXIDANT     H2                           1.0000000         0.000      0.000

 O/F=    1.00000  %FUEL= 50.000000  R,EQ.RATIO= 0.000000  PHI,EQ.RATIO=-1.000000

 THERMODYNAMIC PROPERTIES

 P, BAR            3.1000   3.1000   3.1000   3.1000   3.1000   3.1000   3.1000   3.1000
 T, K             7870.00  7880.00  7890.00  7900.00  7910.00  7920.00  7930.00  7940.00
 RHO, KG/CU M    4.7760-3 4.7698-3 4.7637-3 4.7575-3 4.7514-3 4.7452-3 4.7391-3 4.7330-3
 H, KJ/KG        373423.9 373658.4 373893.1 374128.0 374363.1 374598.5 374834.1 375070.0
 U, KJ/KG        308516.5 308666.7 308817.2 308967.9 309118.8 309269.9 309421.3 309572.8
 G, KJ/KG       -981296.2-983017.7-984739.5-986461.6-988184.0-989906.8-991629.8-993353.1
 S, KJ/(KG)(K)   172.1372 172.1670 172.1968 172.2265 172.2563 172.2860 172.3157 172.3455

 M, (1/n)           1.008    1.008    1.008    1.008    1.008    1.008    1.008    1.008
 (dLV/dLP)t      -1.00180 -1.00179 -1.00179 -1.00179 -1.00179 -1.00178 -1.00178 -1.00178
 (dLV/dLT)p        1.0211   1.0211   1.0212   1.0213   1.0214   1.0214   1.0215   1.0216
 Cp, KJ/(KG)(K)   23.4369  23.4586  23.4806  23.5030  23.5258  23.5488  23.5723  23.5960
 GAMMAs            1.5750   1.5743   1.5736   1.5729   1.5722   1.5715   1.5708   1.5701
 SON VEL,M/SEC    10110.9  10115.2  10119.6  10123.9  10128.1  10132.4  10136.6  10140.8

 TRANSPORT PROPERTIES (GASES ONLY)
   CONDUCTIVITY IN UNITS OF MILLIWATTS/(CM)(K)

 VISC,MILLIPOISE  0.81011  0.81094  0.81177  0.81261  0.81344  0.81427  0.81509  0.81592

  WITH EQUILIBRIUM REACTIONS

 Cp, KJ/(KG)(K)   23.4369  23.4586  23.4806  23.5030  23.5258  23.5488  23.5723  23.5960
 CONDUCTIVITY     26.4617  26.4879  26.5143  26.5408  26.5674  26.5942  26.6210  26.6480
 PRANDTL NUMBER    0.7175   0.7182   0.7189   0.7196   0.7203   0.7210   0.7217   0.7225

  WITH FROZEN REACTIONS

 Cp, KJ/(KG)(K)   20.6582  20.6585  20.6588  20.6591  20.6595  20.6598  20.6601  20.6604
 CONDUCTIVITY     25.2189  25.2474  25.2759  25.3043  25.3327  25.3610  25.3893  25.4176
 PRANDTL NUMBER    0.6636   0.6635   0.6635   0.6634   0.6634   0.6633   0.6633   0.6632

 MASS FRACTIONS

 *H               0.99640  0.99641  0.99641  0.99642  0.99643  0.99643  0.99644  0.99644
 *H+              0.00107  0.00109  0.00110  0.00112  0.00114  0.00115  0.00117  0.00118
 *H2              0.00252  0.00250  0.00248  0.00246  0.00243  0.00241  0.00239  0.00237

  * THERMODYNAMIC PROPERTIES FITTED TO 20000.K

 NOTE. WEIGHT FRACTION OF FUEL IN TOTAL FUELS AND OF OXIDANT IN TOTAL OXIDANTS









               THERMODYNAMIC EQUILIBRIUM PROPERTIES AT ASSIGNED

                           TEMPERATURE AND PRESSURE

 CASE =                

             REACTANT                    WT FRACTION      ENERGY      TEMP
                                          (SEE NOTE)     KJ/KG-MOL      K  
 FUEL        H2                           1.0000000         0.000      0.000
 OXIDANT     H2                           1.0000000         0.000      0.000

 O/F=    1.00000  %FUEL= 50.000000  R,EQ.RATIO= 0.000000  PHI,EQ.RATIO=-1.000000

 THERMODYNAMIC PROPERTIES

 P, BAR            3.1000   3.1000   3.1000   3.1000   3.1000   3.5000   3.5000   3.5000
 T, K             7950.00  7960.00  7970.00  7980.00  7990.00  7850.00  7860.00  7870.00
 RHO, KG/CU M    4.7270-3 4.7209-3 4.7148-3 4.7088-3 4.7028-3 5.4076-3 5.4005-3 5.3935-3
 H, KJ/KG        375306.0 375542.4 375778.9 376015.7 376252.8 372789.4 373022.8 373256.4
 U, KJ/KG        309724.6 309876.7 310029.0 310181.5 310334.2 308065.1 308214.3 308363.7
 G, KJ/KG       -995076.7-996800.6-998524.8-1000249.-1001974.-969998.1-971708.8-973419.8
 S, KJ/(KG)(K)   172.3752 172.4049 172.4346 172.4643 172.4940 171.0557 171.0854 171.1152

 M, (1/n)           1.008    1.008    1.008    1.008    1.008    1.008    1.008    1.008
 (dLV/dLP)t      -1.00178 -1.00177 -1.00177 -1.00177 -1.00177 -1.00194 -1.00193 -1.00193
 (dLV/dLT)p        1.0217   1.0218   1.0219   1.0220   1.0221   1.0214   1.0215   1.0215
 Cp, KJ/(KG)(K)   23.6202  23.6446  23.6694  23.6946  23.7201  23.3320  23.3507  23.3696
 GAMMAs            1.5693   1.5686   1.5679   1.5671   1.5664   1.5791   1.5785   1.5779
 SON VEL,M/SEC    10144.9  10149.1  10153.2  10157.2  10161.3  10109.8  10114.4  10118.9

 TRANSPORT PROPERTIES (GASES ONLY)
   CONDUCTIVITY IN UNITS OF MILLIWATTS/(CM)(K)

 VISC,MILLIPOISE  0.81674  0.81756  0.81838  0.81920  0.82001  0.80923  0.81008  0.81092

  WITH EQUILIBRIUM REACTIONS

 Cp, KJ/(KG)(K)   23.6202  23.6446  23.6694  23.6946  23.7201  23.3320  23.3507  23.3696
 CONDUCTIVITY     26.6751  26.7024  26.7297  26.7571  26.7847  26.4995  26.5242  26.5491
 PRANDTL NUMBER    0.7232   0.7239   0.7247   0.7254   0.7262   0.7125   0.7132   0.7138

  WITH FROZEN REACTIONS

 Cp, KJ/(KG)(K)   20.6608  20.6611  20.6614  20.6617  20.6621  20.6563  20.6566  20.6569
 CONDUCTIVITY     25.4459  25.4741  25.5022  25.5303  25.5584  25.1744  25.2031  25.2317
 PRANDTL NUMBER    0.6632   0.6631   0.6630   0.6630   0.6629   0.6640   0.6639   0.6639

 MASS FRACTIONS

 *H               0.99644  0.99645  0.99645  0.99645  0.99646  0.99611  0.99613  0.99614
 *H+              0.00120  0.00122  0.00124  0.00125  0.00127  0.00098  0.00099  0.00101
 *H2              0.00235  0.00233  0.00231  0.00229  0.00227  0.00290  0.00287  0.00285

  * THERMODYNAMIC PROPERTIES FITTED TO 20000.K

 NOTE. WEIGHT FRACTION OF FUEL IN TOTAL FUELS AND OF OXIDANT IN TOTAL OXIDANTS









               THERMODYNAMIC EQUILIBRIUM PROPERTIES AT ASSIGNED

                           TEMPERATURE AND PRESSURE

 CASE =                

             REACTANT                    WT FRACTION      ENERGY      TEMP
                                          (SEE NOTE)     KJ/KG-MOL      K  
 FUEL        H2                           1.0000000         0.000      0.000
 OXIDANT     H2                           1.0000000         0.000      0.000

 O/F=    1.00000  %FUEL= 50.000000  R,EQ.RATIO= 0.000000  PHI,EQ.RATIO=-1.000000

 THERMODYNAMIC PROPERTIES

 P, BAR            3.5000   3.5000   3.5000   3.5000   3.5000   3.5000   3.5000   3.5000
 T, K             7880.00  7890.00  7900.00  7910.00  7920.00  7930.00  7940.00  7950.00
 RHO, KG/CU M    5.3865-3 5.3795-3 5.3726-3 5.3657-3 5.3587-3 5.3518-3 5.3449-3 5.3381-3
 H, KJ/KG        373490.2 373724.2 373958.4 374192.8 374427.4 374662.2 374897.2 375132.4
 U, KJ/KG        308513.2 308663.0 308812.9 308963.0 309113.4 309263.9 309414.7 309565.6
 G, KJ/KG       -975131.1-976842.7-978554.6-980266.8-981979.3-983692.1-985405.2-987118.5
 S, KJ/(KG)(K)   171.1448 171.1745 171.2042 171.2338 171.2635 171.2931 171.3227 171.3523

 M, (1/n)           1.008    1.008    1.008    1.008    1.008    1.008    1.008    1.008
 (dLV/dLP)t      -1.00192 -1.00192 -1.00191 -1.00191 -1.00190 -1.00190 -1.00190 -1.00189
 (dLV/dLT)p        1.0215   1.0216   1.0217   1.0217   1.0218   1.0218   1.0219   1.0220
 Cp, KJ/(KG)(K)   23.3890  23.4086  23.4286  23.4490  23.4696  23.4906  23.5120  23.5337
 GAMMAs            1.5772   1.5766   1.5760   1.5753   1.5747   1.5740   1.5733   1.5726
 SON VEL,M/SEC    10123.5  10128.0  10132.5  10136.9  10141.3  10145.7  10150.1  10154.4

 TRANSPORT PROPERTIES (GASES ONLY)
   CONDUCTIVITY IN UNITS OF MILLIWATTS/(CM)(K)

 VISC,MILLIPOISE  0.81176  0.81260  0.81344  0.81428  0.81512  0.81595  0.81678  0.81761

  WITH EQUILIBRIUM REACTIONS

 Cp, KJ/(KG)(K)   23.3890  23.4086  23.4286  23.4490  23.4696  23.4906  23.5120  23.5337
 CONDUCTIVITY     26.5741  26.5993  26.6246  26.6500  26.6756  26.7013  26.7271  26.7531
 PRANDTL NUMBER    0.7145   0.7151   0.7158   0.7165   0.7172   0.7178   0.7185   0.7192

  WITH FROZEN REACTIONS

 Cp, KJ/(KG)(K)   20.6572  20.6575  20.6578  20.6581  20.6584  20.6587  20.6590  20.6593
 CONDUCTIVITY     25.2604  25.2890  25.3175  25.3460  25.3745  25.4030  25.4314  25.4598
 PRANDTL NUMBER    0.6638   0.6638   0.6637   0.6637   0.6636   0.6636   0.6635   0.6634

 MASS FRACTIONS

 *H               0.99615  0.99616  0.99617  0.99618  0.99619  0.99620  0.99620  0.99621
 *H+              0.00102  0.00104  0.00105  0.00107  0.00108  0.00110  0.00111  0.00113
 *H2              0.00282  0.00280  0.00277  0.00275  0.00272  0.00270  0.00267  0.00265

  * THERMODYNAMIC PROPERTIES FITTED TO 20000.K

 NOTE. WEIGHT FRACTION OF FUEL IN TOTAL FUELS AND OF OXIDANT IN TOTAL OXIDANTS









               THERMODYNAMIC EQUILIBRIUM PROPERTIES AT ASSIGNED

                           TEMPERATURE AND PRESSURE

 CASE =                

             REACTANT                    WT FRACTION      ENERGY      TEMP
                                          (SEE NOTE)     KJ/KG-MOL      K  
 FUEL        H2                           1.0000000         0.000      0.000
 OXIDANT     H2                           1.0000000         0.000      0.000

 O/F=    1.00000  %FUEL= 50.000000  R,EQ.RATIO= 0.000000  PHI,EQ.RATIO=-1.000000

 THERMODYNAMIC PROPERTIES

 P, BAR            3.5000   3.5000   3.5000   3.5000   3.9000   3.9000   3.9000   3.9000
 T, K             7960.00  7970.00  7980.00  7990.00  7850.00  7860.00  7870.00  7880.00
 RHO, KG/CU M    5.3312-3 5.3244-3 5.3176-3 5.3108-3 6.0269-3 6.0190-3 6.0112-3 6.0034-3
 H, KJ/KG        375367.8 375603.5 375839.4 376075.5 372637.5 372870.5 373103.7 373337.0
 U, KJ/KG        309716.8 309868.1 310019.7 310171.5 307927.3 308076.0 308224.9 308374.0
 G, KJ/KG       -988832.2-990546.2-992260.4-993975.0-962994.8-964696.4-966398.3-968100.5
 S, KJ/(KG)(K)   171.3819 171.4115 171.4411 171.4707 170.1442 170.1739 170.2036 170.2332

 M, (1/n)           1.008    1.008    1.008    1.008    1.009    1.009    1.009    1.009
 (dLV/dLP)t      -1.00189 -1.00188 -1.00188 -1.00188 -1.00208 -1.00207 -1.00206 -1.00206
 (dLV/dLT)p        1.0220   1.0221   1.0222   1.0223   1.0220   1.0220   1.0220   1.0221
 Cp, KJ/(KG)(K)   23.5557  23.5781  23.6008  23.6238  23.2901  23.3066  23.3235  23.3407
 GAMMAs            1.5719   1.5713   1.5706   1.5699   1.5813   1.5807   1.5801   1.5796
 SON VEL,M/SEC    10158.7  10163.0  10167.3  10171.5  10115.6  10120.4  10125.1  10129.8

 TRANSPORT PROPERTIES (GASES ONLY)
   CONDUCTIVITY IN UNITS OF MILLIWATTS/(CM)(K)

 VISC,MILLIPOISE  0.81844  0.81927  0.82009  0.82092  0.80995  0.81080  0.81165  0.81250

  WITH EQUILIBRIUM REACTIONS

 Cp, KJ/(KG)(K)   23.5557  23.5781  23.6008  23.6238  23.2901  23.3066  23.3235  23.3407
 CONDUCTIVITY     26.7791  26.8054  26.8317  26.8582  26.5920  26.6155  26.6391  26.6629
 PRANDTL NUMBER    0.7199   0.7206   0.7213   0.7221   0.7094   0.7100   0.7106   0.7113

  WITH FROZEN REACTIONS

 Cp, KJ/(KG)(K)   20.6596  20.6599  20.6602  20.6605  20.6553  20.6555  20.6558  20.6561
 CONDUCTIVITY     25.4882  25.5165  25.5448  25.5731  25.1856  25.2144  25.2431  25.2718
 PRANDTL NUMBER    0.6634   0.6633   0.6633   0.6632   0.6643   0.6642   0.6642   0.6641

 MASS FRACTIONS

 *H               0.99622  0.99623  0.99623  0.99624  0.99584  0.99585  0.99587  0.99588
 *H+              0.00115  0.00116  0.00118  0.00120  0.00093  0.00094  0.00096  0.00097
 *H2              0.00263  0.00261  0.00258  0.00256  0.00323  0.00320  0.00317  0.00314

  * THERMODYNAMIC PROPERTIES FITTED TO 20000.K

 NOTE. WEIGHT FRACTION OF FUEL IN TOTAL FUELS AND OF OXIDANT IN TOTAL OXIDANTS









               THERMODYNAMIC EQUILIBRIUM PROPERTIES AT ASSIGNED

                           TEMPERATURE AND PRESSURE

 CASE =                

             REACTANT                    WT FRACTION      ENERGY      TEMP
                                          (SEE NOTE)     KJ/KG-MOL      K  
 FUEL        H2                           1.0000000         0.000      0.000
 OXIDANT     H2                           1.0000000         0.000      0.000

 O/F=    1.00000  %FUEL= 50.000000  R,EQ.RATIO= 0.000000  PHI,EQ.RATIO=-1.000000

 THERMODYNAMIC PROPERTIES

 P, BAR            3.9000   3.9000   3.9000   3.9000   3.9000   3.9000   3.9000   3.9000
 T, K             7890.00  7900.00  7910.00  7920.00  7930.00  7940.00  7950.00  7960.00
 RHO, KG/CU M    5.9956-3 5.9879-3 5.9801-3 5.9724-3 5.9647-3 5.9570-3 5.9494-3 5.9417-3
 H, KJ/KG        373570.5 373804.1 374038.0 374272.0 374506.2 374740.7 374975.3 375210.1
 U, KJ/KG        308523.2 308672.6 308822.2 308971.9 309121.9 309272.0 309422.3 309572.8
 G, KJ/KG       -969803.0-971505.7-973208.8-974912.2-976615.8-978319.8-980024.1-981728.6
 S, KJ/(KG)(K)   170.2628 170.2924 170.3220 170.3515 170.3811 170.4106 170.4402 170.4697

 M, (1/n)           1.009    1.008    1.008    1.008    1.008    1.008    1.008    1.008
 (dLV/dLP)t      -1.00205 -1.00204 -1.00204 -1.00203 -1.00202 -1.00202 -1.00201 -1.00201
 (dLV/dLT)p        1.0221   1.0221   1.0222   1.0222   1.0223   1.0223   1.0224   1.0224
 Cp, KJ/(KG)(K)   23.3582  23.3761  23.3943  23.4128  23.4317  23.4509  23.4704  23.4903
 GAMMAs            1.5790   1.5784   1.5778   1.5772   1.5765   1.5759   1.5753   1.5746
 SON VEL,M/SEC    10134.5  10139.1  10143.7  10148.3  10152.9  10157.4  10161.9  10166.4

 TRANSPORT PROPERTIES (GASES ONLY)
   CONDUCTIVITY IN UNITS OF MILLIWATTS/(CM)(K)

 VISC,MILLIPOISE  0.81335  0.81419  0.81503  0.81587  0.81671  0.81755  0.81839  0.81922

  WITH EQUILIBRIUM REACTIONS

 Cp, KJ/(KG)(K)   23.3582  23.3761  23.3943  23.4128  23.4317  23.4509  23.4704  23.4903
 CONDUCTIVITY     26.6869  26.7110  26.7353  26.7597  26.7842  26.8089  26.8338  26.8588
 PRANDTL NUMBER    0.7119   0.7125   0.7132   0.7138   0.7145   0.7151   0.7158   0.7165

  WITH FROZEN REACTIONS

 Cp, KJ/(KG)(K)   20.6564  20.6566  20.6569  20.6572  20.6575  20.6578  20.6580  20.6583
 CONDUCTIVITY     25.3005  25.3292  25.3578  25.3865  25.4150  25.4436  25.4721  25.5006
 PRANDTL NUMBER    0.6640   0.6640   0.6639   0.6639   0.6638   0.6638   0.6637   0.6637

 MASS FRACTIONS

 *H               0.99590  0.99591  0.99592  0.99593  0.99595  0.99596  0.99597  0.99598
 *H+              0.00098  0.00100  0.00101  0.00103  0.00104  0.00106  0.00107  0.00109
 *H2              0.00312  0.00309  0.00306  0.00303  0.00301  0.00298  0.00295  0.00293

  * THERMODYNAMIC PROPERTIES FITTED TO 20000.K

 NOTE. WEIGHT FRACTION OF FUEL IN TOTAL FUELS AND OF OXIDANT IN TOTAL OXIDANTS









               THERMODYNAMIC EQUILIBRIUM PROPERTIES AT ASSIGNED

                           TEMPERATURE AND PRESSURE

 CASE =                

             REACTANT                    WT FRACTION      ENERGY      TEMP
                                          (SEE NOTE)     KJ/KG-MOL      K  
 FUEL        H2                           1.0000000         0.000      0.000
 OXIDANT     H2                           1.0000000         0.000      0.000

 O/F=    1.00000  %FUEL= 50.000000  R,EQ.RATIO= 0.000000  PHI,EQ.RATIO=-1.000000

 THERMODYNAMIC PROPERTIES

 P, BAR            3.9000   3.9000   3.9000   4.4000   4.4000   4.4000   4.4000   4.4000
 T, K             7970.00  7980.00  7990.00  7850.00  7860.00  7870.00  7880.00  7890.00
 RHO, KG/CU M    5.9341-3 5.9265-3 5.9189-3 6.8013-3 6.7925-3 6.7836-3 6.7748-3 6.7661-3
 H, KJ/KG        375445.1 375680.3 375915.7 372462.7 372695.4 372928.2 373161.1 373394.3
 U, KJ/KG        309723.5 309874.4 310025.5 307769.4 307917.7 308066.2 308214.9 308363.7
 G, KJ/KG       -983433.4-985138.6-986844.0-955190.0-956881.4-958573.1-960265.1-961957.4
 S, KJ/(KG)(K)   170.4992 170.5287 170.5582 169.1277 169.1574 169.1870 169.2165 169.2461

 M, (1/n)           1.008    1.008    1.008    1.009    1.009    1.009    1.009    1.009
 (dLV/dLP)t      -1.00200 -1.00200 -1.00199 -1.00226 -1.00225 -1.00224 -1.00223 -1.00222
 (dLV/dLT)p        1.0225   1.0225   1.0226   1.0228   1.0228   1.0228   1.0228   1.0229
 Cp, KJ/(KG)(K)   23.5105  23.5310  23.5519  23.2593  23.2734  23.2879  23.3027  23.3178
 GAMMAs            1.5740   1.5733   1.5727   1.5834   1.5828   1.5823   1.5818   1.5813
 SON VEL,M/SEC    10170.8  10175.2  10179.6  10120.9  10125.8  10130.8  10135.7  10140.5

 TRANSPORT PROPERTIES (GASES ONLY)
   CONDUCTIVITY IN UNITS OF MILLIWATTS/(CM)(K)

 VISC,MILLIPOISE  0.82006  0.82089  0.82172  0.81077  0.81162  0.81248  0.81333  0.81418

  WITH EQUILIBRIUM REACTIONS

 Cp, KJ/(KG)(K)   23.5105  23.5310  23.5519  23.2593  23.2734  23.2879  23.3027  23.3178
 CONDUCTIVITY     26.8839  26.9091  26.9345  26.7102  26.7322  26.7543  26.7767  26.7992
 PRANDTL NUMBER    0.7172   0.7178   0.7185   0.7060   0.7066   0.7072   0.7078   0.7084

  WITH FROZEN REACTIONS

 Cp, KJ/(KG)(K)   20.6586  20.6589  20.6592  20.6542  20.6544  20.6547  20.6549  20.6552
 CONDUCTIVITY     25.5291  25.5575  25.5859  25.1981  25.2270  25.2559  25.2847  25.3135
 PRANDTL NUMBER    0.6636   0.6635   0.6635   0.6646   0.6645   0.6645   0.6644   0.6644

 MASS FRACTIONS

 *H               0.99599  0.99600  0.99601  0.99548  0.99550  0.99552  0.99554  0.99555
 *H+              0.00110  0.00112  0.00113  0.00087  0.00089  0.00090  0.00091  0.00093
 *H2              0.00290  0.00288  0.00285  0.00364  0.00361  0.00358  0.00355  0.00351

  * THERMODYNAMIC PROPERTIES FITTED TO 20000.K

 NOTE. WEIGHT FRACTION OF FUEL IN TOTAL FUELS AND OF OXIDANT IN TOTAL OXIDANTS









               THERMODYNAMIC EQUILIBRIUM PROPERTIES AT ASSIGNED

                           TEMPERATURE AND PRESSURE

 CASE =                

             REACTANT                    WT FRACTION      ENERGY      TEMP
                                          (SEE NOTE)     KJ/KG-MOL      K  
 FUEL        H2                           1.0000000         0.000      0.000
 OXIDANT     H2                           1.0000000         0.000      0.000

 O/F=    1.00000  %FUEL= 50.000000  R,EQ.RATIO= 0.000000  PHI,EQ.RATIO=-1.000000

 THERMODYNAMIC PROPERTIES

 P, BAR            4.4000   4.4000   4.4000   4.4000   4.4000   4.4000   4.4000   4.4000
 T, K             7900.00  7910.00  7920.00  7930.00  7940.00  7950.00  7960.00  7970.00
 RHO, KG/CU M    6.7573-3 6.7486-3 6.7398-3 6.7311-3 6.7225-3 6.7138-3 6.7052-3 6.6966-3
 H, KJ/KG        373627.5 373860.9 374094.5 374328.2 374562.1 374796.2 375030.4 375264.9
 U, KJ/KG        308512.6 308661.7 308811.0 308960.4 309110.0 309259.7 309409.7 309559.7
 G, KJ/KG       -963650.0-965342.9-967036.1-968729.6-970423.4-972117.5-973811.9-975506.6
 S, KJ/(KG)(K)   169.2756 169.3052 169.3347 169.3642 169.3936 169.4231 169.4526 169.4820

 M, (1/n)           1.009    1.009    1.009    1.009    1.009    1.009    1.009    1.009
 (dLV/dLP)t      -1.00221 -1.00220 -1.00219 -1.00218 -1.00218 -1.00217 -1.00216 -1.00215
 (dLV/dLT)p        1.0229   1.0229   1.0229   1.0229   1.0229   1.0230   1.0230   1.0230
 Cp, KJ/(KG)(K)   23.3333  23.3491  23.3653  23.3817  23.3985  23.4157  23.4331  23.4509
 GAMMAs            1.5807   1.5802   1.5796   1.5790   1.5785   1.5779   1.5773   1.5767
 SON VEL,M/SEC    10145.3  10150.2  10154.9  10159.7  10164.4  10169.1  10173.7  10178.4

 TRANSPORT PROPERTIES (GASES ONLY)
   CONDUCTIVITY IN UNITS OF MILLIWATTS/(CM)(K)

 VISC,MILLIPOISE  0.81503  0.81588  0.81672  0.81757  0.81841  0.81925  0.82010  0.82093

  WITH EQUILIBRIUM REACTIONS

 Cp, KJ/(KG)(K)   23.3333  23.3491  23.3653  23.3817  23.3985  23.4157  23.4331  23.4509
 CONDUCTIVITY     26.8218  26.8447  26.8676  26.8908  26.9141  26.9376  26.9612  26.9850
 PRANDTL NUMBER    0.7090   0.7096   0.7103   0.7109   0.7115   0.7121   0.7128   0.7134

  WITH FROZEN REACTIONS

 Cp, KJ/(KG)(K)   20.6554  20.6557  20.6560  20.6562  20.6565  20.6567  20.6570  20.6573
 CONDUCTIVITY     25.3423  25.3710  25.3997  25.4284  25.4571  25.4858  25.5144  25.5430
 PRANDTL NUMBER    0.6643   0.6642   0.6642   0.6641   0.6641   0.6640   0.6640   0.6639

 MASS FRACTIONS

 *H               0.99557  0.99559  0.99561  0.99562  0.99564  0.99565  0.99567  0.99568
 *H+              0.00094  0.00095  0.00097  0.00098  0.00099  0.00101  0.00102  0.00104
 *H2              0.00348  0.00345  0.00342  0.00339  0.00336  0.00333  0.00330  0.00327

  * THERMODYNAMIC PROPERTIES FITTED TO 20000.K

 NOTE. WEIGHT FRACTION OF FUEL IN TOTAL FUELS AND OF OXIDANT IN TOTAL OXIDANTS









               THERMODYNAMIC EQUILIBRIUM PROPERTIES AT ASSIGNED

                           TEMPERATURE AND PRESSURE

 CASE =                

             REACTANT                    WT FRACTION      ENERGY      TEMP
                                          (SEE NOTE)     KJ/KG-MOL      K  
 FUEL        H2                           1.0000000         0.000      0.000
 OXIDANT     H2                           1.0000000         0.000      0.000

 O/F=    1.00000  %FUEL= 50.000000  R,EQ.RATIO= 0.000000  PHI,EQ.RATIO=-1.000000

 THERMODYNAMIC PROPERTIES

 P, BAR            4.4000   4.4000   4.9000   4.9000   4.9000   4.9000   4.9000   4.9000
 T, K             7980.00  7990.00  7850.00  7860.00  7870.00  7880.00  7890.00  7900.00
 RHO, KG/CU M    6.6880-3 6.6794-3 7.5761-3 7.5662-3 7.5564-3 7.5466-3 7.5368-3 7.5270-3
 H, KJ/KG        375499.5 375734.2 372300.6 372533.1 372765.8 372998.5 373231.4 373464.5
 U, KJ/KG        309710.0 309860.4 307623.6 307771.7 307920.0 308068.5 308217.0 308365.7
 G, KJ/KG       -977201.5-978896.8-948227.8-949910.2-951592.8-953275.8-954959.0-956642.5
 S, KJ/(KG)(K)   169.5114 169.5408 168.2202 168.2498 168.2794 168.3089 168.3385 168.3680

 M, (1/n)           1.009    1.008    1.009    1.009    1.009    1.009    1.009    1.009
 (dLV/dLP)t      -1.00215 -1.00214 -1.00244 -1.00243 -1.00241 -1.00240 -1.00239 -1.00238
 (dLV/dLT)p        1.0231   1.0231   1.0238   1.0237   1.0237   1.0237   1.0237   1.0237
 Cp, KJ/(KG)(K)   23.4691  23.4875  23.2465  23.2584  23.2708  23.2834  23.2964  23.3097
 GAMMAs            1.5761   1.5755   1.5849   1.5844   1.5839   1.5835   1.5830   1.5825
 SON VEL,M/SEC    10183.0  10187.5  10124.5  10129.6  10134.7  10139.8  10144.8  10149.8

 TRANSPORT PROPERTIES (GASES ONLY)
   CONDUCTIVITY IN UNITS OF MILLIWATTS/(CM)(K)

 VISC,MILLIPOISE  0.82177  0.82261  0.81151  0.81237  0.81322  0.81408  0.81493  0.81579

  WITH EQUILIBRIUM REACTIONS

 Cp, KJ/(KG)(K)   23.4691  23.4875  23.2465  23.2584  23.2708  23.2834  23.2964  23.3097
 CONDUCTIVITY     27.0089  27.0330  26.8306  26.8511  26.8717  26.8926  26.9137  26.9349
 PRANDTL NUMBER    0.7141   0.7147   0.7031   0.7037   0.7042   0.7048   0.7054   0.7060

  WITH FROZEN REACTIONS

 Cp, KJ/(KG)(K)   20.6575  20.6578  20.6532  20.6535  20.6537  20.6539  20.6542  20.6544
 CONDUCTIVITY     25.5715  25.6000  25.2096  25.2385  25.2674  25.2963  25.3252  25.3540
 PRANDTL NUMBER    0.6639   0.6638   0.6648   0.6648   0.6647   0.6647   0.6646   0.6646

 MASS FRACTIONS

 *H               0.99570  0.99571  0.99511  0.99514  0.99516  0.99518  0.99521  0.99523
 *H+              0.00105  0.00107  0.00083  0.00084  0.00085  0.00086  0.00088  0.00089
 *H2              0.00324  0.00322  0.00405  0.00402  0.00398  0.00395  0.00391  0.00388

  * THERMODYNAMIC PROPERTIES FITTED TO 20000.K

 NOTE. WEIGHT FRACTION OF FUEL IN TOTAL FUELS AND OF OXIDANT IN TOTAL OXIDANTS









               THERMODYNAMIC EQUILIBRIUM PROPERTIES AT ASSIGNED

                           TEMPERATURE AND PRESSURE

 CASE =                

             REACTANT                    WT FRACTION      ENERGY      TEMP
                                          (SEE NOTE)     KJ/KG-MOL      K  
 FUEL        H2                           1.0000000         0.000      0.000
 OXIDANT     H2                           1.0000000         0.000      0.000

 O/F=    1.00000  %FUEL= 50.000000  R,EQ.RATIO= 0.000000  PHI,EQ.RATIO=-1.000000

 THERMODYNAMIC PROPERTIES

 P, BAR            4.9000   4.9000   4.9000   4.9000   4.9000   4.9000   4.9000   4.9000
 T, K             7910.00  7920.00  7930.00  7940.00  7950.00  7960.00  7970.00  7980.00
 RHO, KG/CU M    7.5173-3 7.5076-3 7.4979-3 7.4882-3 7.4786-3 7.4689-3 7.4594-3 7.4498-3
 H, KJ/KG        373697.6 373930.9 374164.4 374398.0 374631.7 374865.6 375099.6 375333.8
 U, KJ/KG        308514.5 308663.4 308812.5 308961.7 309111.1 309260.6 309410.3 309560.1
 G, KJ/KG       -958326.4-960010.5-961694.9-963379.6-965064.6-966749.9-968435.5-970121.4
 S, KJ/(KG)(K)   168.3975 168.4269 168.4564 168.4858 168.5153 168.5447 168.5740 168.6034

 M, (1/n)           1.009    1.009    1.009    1.009    1.009    1.009    1.009    1.009
 (dLV/dLP)t      -1.00237 -1.00236 -1.00235 -1.00234 -1.00233 -1.00232 -1.00231 -1.00230
 (dLV/dLT)p        1.0237   1.0237   1.0237   1.0237   1.0237   1.0237   1.0237   1.0237
 Cp, KJ/(KG)(K)   23.3234  23.3374  23.3517  23.3664  23.3813  23.3967  23.4123  23.4283
 GAMMAs            1.5820   1.5815   1.5810   1.5805   1.5799   1.5794   1.5789   1.5783
 SON VEL,M/SEC    10154.8  10159.7  10164.6  10169.5  10174.4  10179.2  10184.0  10188.8

 TRANSPORT PROPERTIES (GASES ONLY)
   CONDUCTIVITY IN UNITS OF MILLIWATTS/(CM)(K)

 VISC,MILLIPOISE  0.81664  0.81749  0.81834  0.81919  0.82004  0.82088  0.82173  0.82257

  WITH EQUILIBRIUM REACTIONS

 Cp, KJ/(KG)(K)   23.3234  23.3374  23.3517  23.3664  23.3813  23.3967  23.4123  23.4283
 CONDUCTIVITY     26.9564  26.9780  26.9997  27.0217  27.0438  27.0661  27.0886  27.1112
 PRANDTL NUMBER    0.7066   0.7072   0.7078   0.7084   0.7090   0.7096   0.7102   0.7108

  WITH FROZEN REACTIONS

 Cp, KJ/(KG)(K)   20.6547  20.6549  20.6552  20.6554  20.6556  20.6559  20.6561  20.6564
 CONDUCTIVITY     25.3829  25.4117  25.4405  25.4692  25.4980  25.5267  25.5554  25.5840
 PRANDTL NUMBER    0.6645   0.6645   0.6644   0.6644   0.6643   0.6642   0.6642   0.6641

 MASS FRACTIONS

 *H               0.99525  0.99527  0.99529  0.99531  0.99533  0.99535  0.99537  0.99539
 *H+              0.00090  0.00092  0.00093  0.00094  0.00095  0.00097  0.00098  0.00100
 *H2              0.00384  0.00381  0.00377  0.00374  0.00371  0.00368  0.00364  0.00361

  * THERMODYNAMIC PROPERTIES FITTED TO 20000.K

 NOTE. WEIGHT FRACTION OF FUEL IN TOTAL FUELS AND OF OXIDANT IN TOTAL OXIDANTS









               THERMODYNAMIC EQUILIBRIUM PROPERTIES AT ASSIGNED

                           TEMPERATURE AND PRESSURE

 CASE =                

             REACTANT                    WT FRACTION      ENERGY      TEMP
                                          (SEE NOTE)     KJ/KG-MOL      K  
 FUEL        H2                           1.0000000         0.000      0.000
 OXIDANT     H2                           1.0000000         0.000      0.000

 O/F=    1.00000  %FUEL= 50.000000  R,EQ.RATIO= 0.000000  PHI,EQ.RATIO=-1.000000

 THERMODYNAMIC PROPERTIES

 P, BAR            4.9000   5.4000   5.4000   5.4000   5.4000   5.4000   5.4000   5.4000
 T, K             7990.00  7850.00  7860.00  7870.00  7880.00  7890.00  7900.00  7910.00
 RHO, KG/CU M    7.4402-3 8.3512-3 8.3403-3 8.3295-3 8.3187-3 8.3078-3 8.2971-3 8.2863-3
 H, KJ/KG        375568.2 372148.2 372380.7 372613.3 372846.0 373078.9 373311.8 373544.9
 U, KJ/KG        309710.1 307487.0 307635.1 307783.3 307931.7 308080.1 308228.6 308377.3
 G, KJ/KG       -971807.6-941944.3-943618.5-945292.9-946967.7-948642.7-950318.0-951993.7
 S, KJ/(KG)(K)   168.6328 167.4003 167.4299 167.4595 167.4891 167.5186 167.5481 167.5776

 M, (1/n)           1.009    1.009    1.009    1.009    1.009    1.009    1.009    1.009
 (dLV/dLP)t      -1.00229 -1.00262 -1.00261 -1.00259 -1.00258 -1.00257 -1.00255 -1.00254
 (dLV/dLT)p        1.0238   1.0248   1.0247   1.0247   1.0247   1.0246   1.0246   1.0246
 Cp, KJ/(KG)(K)   23.4446  23.2474  23.2574  23.2677  23.2784  23.2894  23.3007  23.3124
 GAMMAs            1.5777   1.5860   1.5856   1.5851   1.5847   1.5843   1.5838   1.5834
 SON VEL,M/SEC    10193.5  10126.8  10132.1  10137.3  10142.5  10147.7  10152.9  10158.0

 TRANSPORT PROPERTIES (GASES ONLY)
   CONDUCTIVITY IN UNITS OF MILLIWATTS/(CM)(K)

 VISC,MILLIPOISE  0.82341  0.81219  0.81305  0.81391  0.81477  0.81563  0.81649  0.81734

  WITH EQUILIBRIUM REACTIONS

 Cp, KJ/(KG)(K)   23.4446  23.2474  23.2574  23.2677  23.2784  23.2894  23.3007  23.3124
 CONDUCTIVITY     27.1340  26.9525  26.9716  26.9908  27.0102  27.0299  27.0497  27.0698
 PRANDTL NUMBER    0.7115   0.7005   0.7011   0.7016   0.7022   0.7028   0.7033   0.7039

  WITH FROZEN REACTIONS

 Cp, KJ/(KG)(K)   20.6566  20.6524  20.6527  20.6529  20.6531  20.6533  20.6536  20.6538
 CONDUCTIVITY     25.6127  25.2201  25.2491  25.2781  25.3070  25.3359  25.3648  25.3937
 PRANDTL NUMBER    0.6641   0.6651   0.6650   0.6650   0.6649   0.6649   0.6648   0.6648

 MASS FRACTIONS

 *H               0.99540  0.99474  0.99477  0.99480  0.99482  0.99485  0.99488  0.99490
 *H+              0.00101  0.00079  0.00080  0.00081  0.00082  0.00084  0.00085  0.00086
 *H2              0.00358  0.00447  0.00443  0.00439  0.00435  0.00431  0.00427  0.00423

  * THERMODYNAMIC PROPERTIES FITTED TO 20000.K

 NOTE. WEIGHT FRACTION OF FUEL IN TOTAL FUELS AND OF OXIDANT IN TOTAL OXIDANTS









               THERMODYNAMIC EQUILIBRIUM PROPERTIES AT ASSIGNED

                           TEMPERATURE AND PRESSURE

 CASE =                

             REACTANT                    WT FRACTION      ENERGY      TEMP
                                          (SEE NOTE)     KJ/KG-MOL      K  
 FUEL        H2                           1.0000000         0.000      0.000
 OXIDANT     H2                           1.0000000         0.000      0.000

 O/F=    1.00000  %FUEL= 50.000000  R,EQ.RATIO= 0.000000  PHI,EQ.RATIO=-1.000000

 THERMODYNAMIC PROPERTIES

 P, BAR            5.4000   5.4000   5.4000   5.4000   5.4000   5.4000   5.4000   5.4000
 T, K             7920.00  7930.00  7940.00  7950.00  7960.00  7970.00  7980.00  7990.00
 RHO, KG/CU M    8.2756-3 8.2649-3 8.2542-3 8.2436-3 8.2330-3 8.2224-3 8.2119-3 8.2013-3
 H, KJ/KG        373778.1 374011.4 374244.8 374478.4 374712.1 374945.9 375179.9 375414.0
 U, KJ/KG        308526.1 308675.0 308824.0 308973.1 309122.4 309271.8 309421.4 309571.0
 G, KJ/KG       -953669.6-955345.8-957022.3-958699.1-960376.2-962053.6-963731.3-965409.3
 S, KJ/(KG)(K)   167.6070 167.6365 167.6659 167.6953 167.7247 167.7540 167.7834 167.8127

 M, (1/n)           1.009    1.009    1.009    1.009    1.009    1.009    1.009    1.009
 (dLV/dLP)t      -1.00253 -1.00252 -1.00251 -1.00249 -1.00248 -1.00247 -1.00246 -1.00245
 (dLV/dLT)p        1.0246   1.0245   1.0245   1.0245   1.0245   1.0245   1.0245   1.0245
 Cp, KJ/(KG)(K)   23.3245  23.3368  23.3495  23.3625  23.3759  23.3895  23.4036  23.4179
 GAMMAs            1.5829   1.5825   1.5820   1.5815   1.5810   1.5805   1.5800   1.5795
 SON VEL,M/SEC    10163.1  10168.2  10173.2  10178.2  10183.2  10188.2  10193.1  10198.0

 TRANSPORT PROPERTIES (GASES ONLY)
   CONDUCTIVITY IN UNITS OF MILLIWATTS/(CM)(K)

 VISC,MILLIPOISE  0.81820  0.81905  0.81990  0.82075  0.82160  0.82245  0.82330  0.82414

  WITH EQUILIBRIUM REACTIONS

 Cp, KJ/(KG)(K)   23.3245  23.3368  23.3495  23.3625  23.3759  23.3895  23.4036  23.4179
 CONDUCTIVITY     27.0900  27.1104  27.1311  27.1519  27.1728  27.1940  27.2153  27.2369
 PRANDTL NUMBER    0.7045   0.7050   0.7056   0.7062   0.7068   0.7074   0.7080   0.7086

  WITH FROZEN REACTIONS

 Cp, KJ/(KG)(K)   20.6540  20.6542  20.6545  20.6547  20.6549  20.6552  20.6554  20.6556
 CONDUCTIVITY     25.4226  25.4515  25.4803  25.5091  25.5379  25.5667  25.5954  25.6241
 PRANDTL NUMBER    0.6647   0.6647   0.6646   0.6646   0.6645   0.6645   0.6644   0.6643

 MASS FRACTIONS

 *H               0.99493  0.99495  0.99498  0.99500  0.99502  0.99504  0.99507  0.99509
 *H+              0.00087  0.00088  0.00090  0.00091  0.00092  0.00094  0.00095  0.00096
 *H2              0.00419  0.00416  0.00412  0.00408  0.00405  0.00401  0.00398  0.00394

  * THERMODYNAMIC PROPERTIES FITTED TO 20000.K

 NOTE. WEIGHT FRACTION OF FUEL IN TOTAL FUELS AND OF OXIDANT IN TOTAL OXIDANTS









               THERMODYNAMIC EQUILIBRIUM PROPERTIES AT ASSIGNED

                           TEMPERATURE AND PRESSURE

 CASE =                

             REACTANT                    WT FRACTION      ENERGY      TEMP
                                          (SEE NOTE)     KJ/KG-MOL      K  
 FUEL        H2                           1.0000000         0.000      0.000
 OXIDANT     H2                           1.0000000         0.000      0.000

 O/F=    1.00000  %FUEL= 50.000000  R,EQ.RATIO= 0.000000  PHI,EQ.RATIO=-1.000000

 THERMODYNAMIC PROPERTIES

 P, BAR            6.0000   6.0000   6.0000   6.0000   6.0000   6.0000   6.0000   6.0000
 T, K             7850.00  7860.00  7870.00  7880.00  7890.00  7900.00  7910.00  7920.00
 RHO, KG/CU M    9.2818-3 9.2697-3 9.2576-3 9.2456-3 9.2335-3 9.2216-3 9.2096-3 9.1977-3
 H, KJ/KG        371975.2 372207.8 372440.6 372673.4 372906.3 373139.3 373372.4 373605.6
 U, KJ/KG        307332.6 307480.8 307629.0 307777.4 307925.8 308074.3 308222.9 308371.7
 G, KJ/KG       -935132.6-936797.8-938463.4-940129.2-941795.4-943461.8-945128.5-946795.6
 S, KJ/(KG)(K)   166.5105 166.5402 166.5697 166.5993 166.6289 166.6584 166.6879 166.7173

 M, (1/n)           1.010    1.010    1.010    1.010    1.010    1.010    1.009    1.009
 (dLV/dLP)t      -1.00285 -1.00283 -1.00281 -1.00280 -1.00278 -1.00277 -1.00275 -1.00274
 (dLV/dLT)p        1.0261   1.0260   1.0259   1.0259   1.0258   1.0258   1.0257   1.0257
 Cp, KJ/(KG)(K)   23.2623  23.2701  23.2783  23.2868  23.2956  23.3048  23.3143  23.3241
 GAMMAs            1.5869   1.5865   1.5862   1.5858   1.5854   1.5850   1.5846   1.5842
 SON VEL,M/SEC    10128.2  10133.7  10139.1  10144.5  10149.9  10155.2  10160.5  10165.8

 TRANSPORT PROPERTIES (GASES ONLY)
   CONDUCTIVITY IN UNITS OF MILLIWATTS/(CM)(K)

 VISC,MILLIPOISE  0.81296  0.81382  0.81468  0.81554  0.81640  0.81726  0.81812  0.81898

  WITH EQUILIBRIUM REACTIONS

 Cp, KJ/(KG)(K)   23.2623  23.2701  23.2783  23.2868  23.2956  23.3048  23.3143  23.3241
 CONDUCTIVITY     27.1005  27.1178  27.1353  27.1530  27.1710  27.1892  27.2076  27.2262
 PRANDTL NUMBER    0.6978   0.6984   0.6989   0.6994   0.7000   0.7005   0.7011   0.7016

  WITH FROZEN REACTIONS

 Cp, KJ/(KG)(K)   20.6516  20.6518  20.6520  20.6522  20.6524  20.6527  20.6529  20.6531
 CONDUCTIVITY     25.2319  25.2609  25.2899  25.3189  25.3479  25.3769  25.4058  25.4347
 PRANDTL NUMBER    0.6654   0.6653   0.6653   0.6652   0.6652   0.6651   0.6651   0.6650

 MASS FRACTIONS

 *H               0.99429  0.99432  0.99435  0.99439  0.99442  0.99445  0.99448  0.99451
 *H+              0.00075  0.00076  0.00077  0.00078  0.00079  0.00080  0.00081  0.00083
 *H2              0.00496  0.00491  0.00487  0.00483  0.00478  0.00474  0.00470  0.00466

  * THERMODYNAMIC PROPERTIES FITTED TO 20000.K

 NOTE. WEIGHT FRACTION OF FUEL IN TOTAL FUELS AND OF OXIDANT IN TOTAL OXIDANTS









               THERMODYNAMIC EQUILIBRIUM PROPERTIES AT ASSIGNED

                           TEMPERATURE AND PRESSURE

 CASE =                

             REACTANT                    WT FRACTION      ENERGY      TEMP
                                          (SEE NOTE)     KJ/KG-MOL      K  
 FUEL        H2                           1.0000000         0.000      0.000
 OXIDANT     H2                           1.0000000         0.000      0.000

 O/F=    1.00000  %FUEL= 50.000000  R,EQ.RATIO= 0.000000  PHI,EQ.RATIO=-1.000000

 THERMODYNAMIC PROPERTIES

 P, BAR            6.0000   6.0000   6.0000   6.0000   6.0000   6.0000   6.0000   6.7000
 T, K             7930.00  7940.00  7950.00  7960.00  7970.00  7980.00  7990.00  7850.00
 RHO, KG/CU M    9.1858-3 9.1739-3 9.1621-3 9.1503-3 9.1385-3 9.1268-3 9.1150-3 1.0368-2
 H, KJ/KG        373838.9 374072.3 374305.8 374539.4 374773.1 375007.0 375240.9 371783.9
 U, KJ/KG        308520.5 308669.4 308818.4 308967.5 309116.8 309266.1 309415.6 307162.6
 G, KJ/KG       -948462.9-950130.5-951798.4-953466.6-955135.1-956803.9-958473.0-928000.5
 S, KJ/(KG)(K)   166.7468 166.7762 166.8056 166.8349 166.8643 166.8936 166.9229 165.5776

 M, (1/n)           1.009    1.009    1.009    1.009    1.009    1.009    1.009    1.010
 (dLV/dLP)t      -1.00272 -1.00271 -1.00269 -1.00268 -1.00267 -1.00265 -1.00264 -1.00311
 (dLV/dLT)p        1.0256   1.0256   1.0256   1.0255   1.0255   1.0255   1.0254   1.0276
 Cp, KJ/(KG)(K)   23.3343  23.3448  23.3557  23.3669  23.3784  23.3902  23.4024  23.2945
 GAMMAs            1.5838   1.5833   1.5829   1.5825   1.5820   1.5816   1.5811   1.5875
 SON VEL,M/SEC    10171.0  10176.2  10181.4  10186.6  10191.7  10196.8  10201.8  10128.4

 TRANSPORT PROPERTIES (GASES ONLY)
   CONDUCTIVITY IN UNITS OF MILLIWATTS/(CM)(K)

 VISC,MILLIPOISE  0.81983  0.82069  0.82154  0.82240  0.82325  0.82410  0.82495  0.81379

  WITH EQUILIBRIUM REACTIONS

 Cp, KJ/(KG)(K)   23.3343  23.3448  23.3557  23.3669  23.3784  23.3902  23.4024  23.2945
 CONDUCTIVITY     27.2450  27.2641  27.2833  27.3027  27.3224  27.3422  27.3622  27.2746
 PRANDTL NUMBER    0.7022   0.7027   0.7033   0.7038   0.7044   0.7050   0.7056   0.6950

  WITH FROZEN REACTIONS

 Cp, KJ/(KG)(K)   20.6533  20.6535  20.6537  20.6539  20.6542  20.6544  20.6546  20.6508
 CONDUCTIVITY     25.4636  25.4925  25.5214  25.5503  25.5791  25.6079  25.6367  25.2448
 PRANDTL NUMBER    0.6650   0.6649   0.6649   0.6648   0.6647   0.6647   0.6646   0.6657

 MASS FRACTIONS

 *H               0.99454  0.99457  0.99459  0.99462  0.99465  0.99468  0.99470  0.99375
 *H+              0.00084  0.00085  0.00086  0.00087  0.00089  0.00090  0.00091  0.00071
 *H2              0.00462  0.00458  0.00454  0.00450  0.00446  0.00442  0.00438  0.00553

  * THERMODYNAMIC PROPERTIES FITTED TO 20000.K

 NOTE. WEIGHT FRACTION OF FUEL IN TOTAL FUELS AND OF OXIDANT IN TOTAL OXIDANTS









               THERMODYNAMIC EQUILIBRIUM PROPERTIES AT ASSIGNED

                           TEMPERATURE AND PRESSURE

 CASE =                

             REACTANT                    WT FRACTION      ENERGY      TEMP
                                          (SEE NOTE)     KJ/KG-MOL      K  
 FUEL        H2                           1.0000000         0.000      0.000
 OXIDANT     H2                           1.0000000         0.000      0.000

 O/F=    1.00000  %FUEL= 50.000000  R,EQ.RATIO= 0.000000  PHI,EQ.RATIO=-1.000000

 THERMODYNAMIC PROPERTIES

 P, BAR            6.7000   6.7000   6.7000   6.7000   6.7000   6.7000   6.7000   6.7000
 T, K             7860.00  7870.00  7880.00  7890.00  7900.00  7910.00  7920.00  7930.00
 RHO, KG/CU M    1.0355-2 1.0341-2 1.0328-2 1.0314-2 1.0301-2 1.0287-2 1.0274-2 1.0261-2
 H, KJ/KG        372016.9 372249.9 372483.0 372716.1 372949.3 373182.6 373416.0 373649.4
 U, KJ/KG        307311.0 307459.4 307607.9 307756.5 307905.1 308053.8 308202.6 308351.5
 G, KJ/KG       -929656.5-931312.7-932969.2-934626.0-936283.1-937940.5-939598.2-941256.2
 S, KJ/(KG)(K)   165.6073 165.6369 165.6665 165.6961 165.7256 165.7551 165.7846 165.8141

 M, (1/n)           1.010    1.010    1.010    1.010    1.010    1.010    1.010    1.010
 (dLV/dLP)t      -1.00309 -1.00307 -1.00305 -1.00304 -1.00302 -1.00300 -1.00298 -1.00297
 (dLV/dLT)p        1.0275   1.0274   1.0274   1.0273   1.0272   1.0271   1.0271   1.0270
 Cp, KJ/(KG)(K)   23.2999  23.3057  23.3118  23.3183  23.3251  23.3323  23.3398  23.3477
 GAMMAs            1.5872   1.5869   1.5865   1.5862   1.5859   1.5855   1.5852   1.5848
 SON VEL,M/SEC    10134.1  10139.7  10145.3  10150.8  10156.4  10161.9  10167.3  10172.8

 TRANSPORT PROPERTIES (GASES ONLY)
   CONDUCTIVITY IN UNITS OF MILLIWATTS/(CM)(K)

 VISC,MILLIPOISE  0.81465  0.81551  0.81638  0.81724  0.81810  0.81896  0.81982  0.82068

  WITH EQUILIBRIUM REACTIONS

 Cp, KJ/(KG)(K)   23.2999  23.3057  23.3118  23.3183  23.3251  23.3323  23.3398  23.3477
 CONDUCTIVITY     27.2899  27.3055  27.3213  27.3373  27.3536  27.3701  27.3869  27.4039
 PRANDTL NUMBER    0.6955   0.6961   0.6966   0.6971   0.6976   0.6981   0.6987   0.6992

  WITH FROZEN REACTIONS

 Cp, KJ/(KG)(K)   20.6510  20.6512  20.6514  20.6516  20.6518  20.6520  20.6522  20.6524
 CONDUCTIVITY     25.2738  25.3029  25.3319  25.3609  25.3899  25.4189  25.4478  25.4768
 PRANDTL NUMBER    0.6656   0.6656   0.6655   0.6655   0.6654   0.6654   0.6653   0.6653

 MASS FRACTIONS

 *H               0.99379  0.99383  0.99387  0.99391  0.99394  0.99398  0.99401  0.99405
 *H+              0.00072  0.00073  0.00074  0.00075  0.00076  0.00077  0.00078  0.00079
 *H2              0.00548  0.00543  0.00539  0.00534  0.00529  0.00524  0.00520  0.00515

  * THERMODYNAMIC PROPERTIES FITTED TO 20000.K

 NOTE. WEIGHT FRACTION OF FUEL IN TOTAL FUELS AND OF OXIDANT IN TOTAL OXIDANTS









               THERMODYNAMIC EQUILIBRIUM PROPERTIES AT ASSIGNED

                           TEMPERATURE AND PRESSURE

 CASE =                

             REACTANT                    WT FRACTION      ENERGY      TEMP
                                          (SEE NOTE)     KJ/KG-MOL      K  
 FUEL        H2                           1.0000000         0.000      0.000
 OXIDANT     H2                           1.0000000         0.000      0.000

 O/F=    1.00000  %FUEL= 50.000000  R,EQ.RATIO= 0.000000  PHI,EQ.RATIO=-1.000000

 THERMODYNAMIC PROPERTIES

 P, BAR            6.7000   6.7000   6.7000   6.7000   6.7000   6.7000   7.4000   7.4000
 T, K             7940.00  7950.00  7960.00  7970.00  7980.00  7990.00  7850.00  7860.00
 RHO, KG/CU M    1.0247-2 1.0234-2 1.0221-2 1.0208-2 1.0195-2 1.0182-2 1.1455-2 1.1440-2
 H, KJ/KG        373882.9 374116.5 374350.2 374584.0 374817.9 375051.8 371601.4 371834.8
 U, KJ/KG        308500.4 308649.5 308798.6 308947.8 309097.1 309246.6 307000.9 307149.6
 G, KJ/KG       -942914.5-944573.1-946232.0-947891.1-949550.6-951210.4-921580.0-923227.5
 S, KJ/(KG)(K)   165.8435 165.8729 165.9023 165.9316 165.9610 165.9903 164.7365 164.7662

 M, (1/n)           1.010    1.010    1.010    1.010    1.010    1.010    1.010    1.010
 (dLV/dLP)t      -1.00295 -1.00293 -1.00292 -1.00290 -1.00288 -1.00287 -1.00338 -1.00336
 (dLV/dLT)p        1.0269   1.0269   1.0268   1.0268   1.0267   1.0267   1.0292   1.0291
 Cp, KJ/(KG)(K)   23.3559  23.3644  23.3733  23.3825  23.3920  23.4019  23.3387  23.3419
 GAMMAs            1.5844   1.5841   1.5837   1.5833   1.5829   1.5825   1.5877   1.5874
 SON VEL,M/SEC    10178.1  10183.5  10188.9  10194.2  10199.4  10204.7  10127.5  10133.3

 TRANSPORT PROPERTIES (GASES ONLY)
   CONDUCTIVITY IN UNITS OF MILLIWATTS/(CM)(K)

 VISC,MILLIPOISE  0.82154  0.82240  0.82325  0.82411  0.82496  0.82581  0.81456  0.81543

  WITH EQUILIBRIUM REACTIONS

 Cp, KJ/(KG)(K)   23.3559  23.3644  23.3733  23.3825  23.3920  23.4019  23.3387  23.3419
 CONDUCTIVITY     27.4211  27.4385  27.4562  27.4740  27.4921  27.5104  27.4500  27.4633
 PRANDTL NUMBER    0.6997   0.7003   0.7008   0.7014   0.7019   0.7025   0.6926   0.6931

  WITH FROZEN REACTIONS

 Cp, KJ/(KG)(K)   20.6526  20.6528  20.6530  20.6531  20.6533  20.6535  20.6501  20.6503
 CONDUCTIVITY     25.5057  25.5347  25.5636  25.5925  25.6213  25.6502  25.2569  25.2860
 PRANDTL NUMBER    0.6652   0.6652   0.6651   0.6651   0.6650   0.6649   0.6660   0.6659

 MASS FRACTIONS

 *H               0.99408  0.99411  0.99415  0.99418  0.99421  0.99424  0.99321  0.99326
 *H+              0.00080  0.00082  0.00083  0.00084  0.00085  0.00086  0.00067  0.00068
 *H2              0.00511  0.00506  0.00502  0.00497  0.00493  0.00489  0.00611  0.00605
 *H2+             0.00000  0.00000  0.00000  0.00000  0.00001  0.00001  0.00000  0.00000

  * THERMODYNAMIC PROPERTIES FITTED TO 20000.K

 NOTE. WEIGHT FRACTION OF FUEL IN TOTAL FUELS AND OF OXIDANT IN TOTAL OXIDANTS









               THERMODYNAMIC EQUILIBRIUM PROPERTIES AT ASSIGNED

                           TEMPERATURE AND PRESSURE

 CASE =                

             REACTANT                    WT FRACTION      ENERGY      TEMP
                                          (SEE NOTE)     KJ/KG-MOL      K  
 FUEL        H2                           1.0000000         0.000      0.000
 OXIDANT     H2                           1.0000000         0.000      0.000

 O/F=    1.00000  %FUEL= 50.000000  R,EQ.RATIO= 0.000000  PHI,EQ.RATIO=-1.000000

 THERMODYNAMIC PROPERTIES

 P, BAR            7.4000   7.4000   7.4000   7.4000   7.4000   7.4000   7.4000   7.4000
 T, K             7870.00  7880.00  7890.00  7900.00  7910.00  7920.00  7930.00  7940.00
 RHO, KG/CU M    1.1425-2 1.1410-2 1.1395-2 1.1380-2 1.1366-2 1.1351-2 1.1336-2 1.1321-2
 H, KJ/KG        372068.3 372301.7 372535.2 372768.8 373002.4 373236.1 373469.8 373703.6
 U, KJ/KG        307298.4 307447.2 307596.0 307744.9 307893.8 308042.8 308191.9 308341.0
 G, KJ/KG       -924875.3-926523.4-928171.8-929820.5-931469.5-933118.8-934768.4-936418.3
 S, KJ/(KG)(K)   164.7959 164.8255 164.8551 164.8847 164.9143 164.9438 164.9733 165.0028

 M, (1/n)           1.010    1.010    1.010    1.010    1.010    1.010    1.010    1.010
 (dLV/dLP)t      -1.00333 -1.00331 -1.00329 -1.00327 -1.00325 -1.00323 -1.00321 -1.00319
 (dLV/dLT)p        1.0290   1.0289   1.0288   1.0287   1.0286   1.0285   1.0284   1.0283
 Cp, KJ/(KG)(K)   23.3455  23.3494  23.3537  23.3584  23.3634  23.3687  23.3744  23.3804
 GAMMAs            1.5872   1.5869   1.5866   1.5863   1.5861   1.5858   1.5854   1.5851
 SON VEL,M/SEC    10139.1  10144.9  10150.6  10156.3  10162.0  10167.6  10173.2  10178.8

 TRANSPORT PROPERTIES (GASES ONLY)
   CONDUCTIVITY IN UNITS OF MILLIWATTS/(CM)(K)

 VISC,MILLIPOISE  0.81629  0.81716  0.81802  0.81889  0.81975  0.82061  0.82147  0.82233

  WITH EQUILIBRIUM REACTIONS

 Cp, KJ/(KG)(K)   23.3455  23.3494  23.3537  23.3584  23.3634  23.3687  23.3744  23.3804
 CONDUCTIVITY     27.4769  27.4908  27.5049  27.5194  27.5340  27.5489  27.5641  27.5795
 PRANDTL NUMBER    0.6936   0.6941   0.6946   0.6951   0.6956   0.6961   0.6966   0.6971

  WITH FROZEN REACTIONS

 Cp, KJ/(KG)(K)   20.6505  20.6506  20.6508  20.6510  20.6512  20.6514  20.6516  20.6517
 CONDUCTIVITY     25.3150  25.3441  25.3731  25.4021  25.4311  25.4601  25.4891  25.5181
 PRANDTL NUMBER    0.6659   0.6658   0.6658   0.6657   0.6657   0.6656   0.6656   0.6655

 MASS FRACTIONS

 *H               0.99330  0.99335  0.99339  0.99343  0.99347  0.99351  0.99355  0.99359
 *H+              0.00069  0.00070  0.00071  0.00072  0.00073  0.00074  0.00075  0.00076
 *H2              0.00600  0.00594  0.00589  0.00584  0.00579  0.00574  0.00569  0.00564
 *H2+             0.00000  0.00000  0.00000  0.00000  0.00000  0.00001  0.00001  0.00001

  * THERMODYNAMIC PROPERTIES FITTED TO 20000.K

 NOTE. WEIGHT FRACTION OF FUEL IN TOTAL FUELS AND OF OXIDANT IN TOTAL OXIDANTS









               THERMODYNAMIC EQUILIBRIUM PROPERTIES AT ASSIGNED

                           TEMPERATURE AND PRESSURE

 CASE =                

             REACTANT                    WT FRACTION      ENERGY      TEMP
                                          (SEE NOTE)     KJ/KG-MOL      K  
 FUEL        H2                           1.0000000         0.000      0.000
 OXIDANT     H2                           1.0000000         0.000      0.000

 O/F=    1.00000  %FUEL= 50.000000  R,EQ.RATIO= 0.000000  PHI,EQ.RATIO=-1.000000

 THERMODYNAMIC PROPERTIES

 P, BAR            7.4000   7.4000   7.4000   7.4000   7.4000   8.2500   8.2500   8.2500
 T, K             7950.00  7960.00  7970.00  7980.00  7990.00  7850.00  7860.00  7870.00
 RHO, KG/CU M    1.1307-2 1.1292-2 1.1278-2 1.1263-2 1.1249-2 1.2776-2 1.2759-2 1.2742-2
 H, KJ/KG        373937.4 374171.3 374405.3 374639.3 374873.4 371389.0 371623.1 371857.1
 U, KJ/KG        308490.2 308639.4 308788.8 308938.2 309087.7 306813.4 306962.6 307111.8
 G, KJ/KG       -938068.4-939718.9-941369.7-943020.7-944672.1-914557.1-916195.4-917834.0
 S, KJ/(KG)(K)   165.0322 165.0616 165.0910 165.1203 165.1496 163.8148 163.8446 163.8743

 M, (1/n)           1.010    1.010    1.010    1.010    1.010    1.011    1.011    1.011
 (dLV/dLP)t      -1.00317 -1.00315 -1.00314 -1.00312 -1.00310 -1.00370 -1.00368 -1.00365
 (dLV/dLT)p        1.0282   1.0282   1.0281   1.0280   1.0279   1.0313   1.0311   1.0310
 Cp, KJ/(KG)(K)   23.3868  23.3936  23.4006  23.4081  23.4158  23.4047  23.4054  23.4065
 GAMMAs            1.5848   1.5845   1.5841   1.5838   1.5834   1.5876   1.5874   1.5872
 SON VEL,M/SEC    10184.3  10189.8  10195.3  10200.7  10206.2  10125.2  10131.2  10137.2

 TRANSPORT PROPERTIES (GASES ONLY)
   CONDUCTIVITY IN UNITS OF MILLIWATTS/(CM)(K)

 VISC,MILLIPOISE  0.82319  0.82405  0.82490  0.82576  0.82661  0.81545  0.81632  0.81719

  WITH EQUILIBRIUM REACTIONS

 Cp, KJ/(KG)(K)   23.3868  23.3936  23.4006  23.4081  23.4158  23.4047  23.4054  23.4065
 CONDUCTIVITY     27.5952  27.6111  27.6272  27.6436  27.6602  27.6640  27.6749  27.6862
 PRANDTL NUMBER    0.6976   0.6982   0.6987   0.6992   0.6998   0.6899   0.6904   0.6909

  WITH FROZEN REACTIONS

 Cp, KJ/(KG)(K)   20.6519  20.6521  20.6523  20.6525  20.6527  20.6494  20.6496  20.6497
 CONDUCTIVITY     25.5470  25.5760  25.6049  25.6338  25.6627  25.2709  25.2999  25.3290
 PRANDTL NUMBER    0.6655   0.6654   0.6653   0.6653   0.6652   0.6663   0.6663   0.6662

 MASS FRACTIONS

 *H               0.99363  0.99367  0.99370  0.99374  0.99378  0.99255  0.99261  0.99266
 *H+              0.00078  0.00079  0.00080  0.00081  0.00082  0.00064  0.00065  0.00066
 *H2              0.00559  0.00554  0.00549  0.00544  0.00539  0.00680  0.00674  0.00668
 *H2+             0.00001  0.00001  0.00001  0.00001  0.00001  0.00000  0.00001  0.00001

  * THERMODYNAMIC PROPERTIES FITTED TO 20000.K

 NOTE. WEIGHT FRACTION OF FUEL IN TOTAL FUELS AND OF OXIDANT IN TOTAL OXIDANTS









               THERMODYNAMIC EQUILIBRIUM PROPERTIES AT ASSIGNED

                           TEMPERATURE AND PRESSURE

 CASE =                

             REACTANT                    WT FRACTION      ENERGY      TEMP
                                          (SEE NOTE)     KJ/KG-MOL      K  
 FUEL        H2                           1.0000000         0.000      0.000
 OXIDANT     H2                           1.0000000         0.000      0.000

 O/F=    1.00000  %FUEL= 50.000000  R,EQ.RATIO= 0.000000  PHI,EQ.RATIO=-1.000000

 THERMODYNAMIC PROPERTIES

 P, BAR            8.2500   8.2500   8.2500   8.2500   8.2500   8.2500   8.2500   8.2500
 T, K             7880.00  7890.00  7900.00  7910.00  7920.00  7930.00  7940.00  7950.00
 RHO, KG/CU M    1.2726-2 1.2709-2 1.2692-2 1.2676-2 1.2659-2 1.2643-2 1.2626-2 1.2610-2
 H, KJ/KG        372091.2 372325.3 372559.4 372793.5 373027.7 373261.9 373496.1 373730.4
 U, KJ/KG        307261.1 307410.4 307559.7 307709.0 307858.4 308007.8 308157.2 308306.7
 G, KJ/KG       -919472.9-921112.1-922751.6-924391.3-926031.4-927671.8-929312.5-930953.4
 S, KJ/(KG)(K)   163.9041 163.9338 163.9634 163.9930 164.0226 164.0522 164.0817 164.1112

 M, (1/n)           1.011    1.011    1.011    1.010    1.010    1.010    1.010    1.010
 (dLV/dLP)t      -1.00363 -1.00360 -1.00358 -1.00356 -1.00353 -1.00351 -1.00349 -1.00347
 (dLV/dLT)p        1.0309   1.0307   1.0306   1.0305   1.0303   1.0302   1.0301   1.0300
 Cp, KJ/(KG)(K)   23.4079  23.4097  23.4119  23.4144  23.4173  23.4206  23.4242  23.4281
 GAMMAs            1.5870   1.5867   1.5865   1.5863   1.5860   1.5858   1.5855   1.5852
 SON VEL,M/SEC    10143.1  10149.1  10155.0  10160.8  10166.6  10172.4  10178.2  10183.9

 TRANSPORT PROPERTIES (GASES ONLY)
   CONDUCTIVITY IN UNITS OF MILLIWATTS/(CM)(K)

 VISC,MILLIPOISE  0.81805  0.81892  0.81978  0.82064  0.82151  0.82237  0.82323  0.82409

  WITH EQUILIBRIUM REACTIONS

 Cp, KJ/(KG)(K)   23.4079  23.4097  23.4119  23.4144  23.4173  23.4206  23.4242  23.4281
 CONDUCTIVITY     27.6978  27.7097  27.7218  27.7343  27.7470  27.7600  27.7732  27.7868
 PRANDTL NUMBER    0.6914   0.6918   0.6923   0.6928   0.6933   0.6938   0.6943   0.6948

  WITH FROZEN REACTIONS

 Cp, KJ/(KG)(K)   20.6499  20.6501  20.6502  20.6504  20.6506  20.6507  20.6509  20.6511
 CONDUCTIVITY     25.3580  25.3871  25.4161  25.4451  25.4741  25.5031  25.5321  25.5611
 PRANDTL NUMBER    0.6662   0.6661   0.6661   0.6660   0.6660   0.6659   0.6658   0.6658

 MASS FRACTIONS

 *H               0.99271  0.99276  0.99280  0.99285  0.99290  0.99294  0.99299  0.99303
 *H+              0.00066  0.00067  0.00068  0.00069  0.00070  0.00071  0.00072  0.00073
 *H2              0.00662  0.00656  0.00650  0.00645  0.00639  0.00633  0.00628  0.00622
 *H2+             0.00001  0.00001  0.00001  0.00001  0.00001  0.00001  0.00001  0.00001

  * THERMODYNAMIC PROPERTIES FITTED TO 20000.K

 NOTE. WEIGHT FRACTION OF FUEL IN TOTAL FUELS AND OF OXIDANT IN TOTAL OXIDANTS









               THERMODYNAMIC EQUILIBRIUM PROPERTIES AT ASSIGNED

                           TEMPERATURE AND PRESSURE

 CASE =                

             REACTANT                    WT FRACTION      ENERGY      TEMP
                                          (SEE NOTE)     KJ/KG-MOL      K  
 FUEL        H2                           1.0000000         0.000      0.000
 OXIDANT     H2                           1.0000000         0.000      0.000

 O/F=    1.00000  %FUEL= 50.000000  R,EQ.RATIO= 0.000000  PHI,EQ.RATIO=-1.000000

 THERMODYNAMIC PROPERTIES

 P, BAR            8.2500   8.2500   8.2500   8.2500   9.1000   9.1000   9.1000   9.1000
 T, K             7960.00  7970.00  7980.00  7990.00  7850.00  7860.00  7870.00  7880.00
 RHO, KG/CU M    1.2594-2 1.2578-2 1.2561-2 1.2545-2 1.4097-2 1.4079-2 1.4060-2 1.4042-2
 H, KJ/KG        373964.7 374199.0 374433.4 374667.9 371184.5 371419.3 371654.1 371888.8
 U, KJ/KG        308456.3 308605.9 308755.5 308905.2 306633.3 306783.1 306932.9 307082.8
 G, KJ/KG       -932594.7-934236.2-935878.1-937520.2-908225.9-909855.9-911486.2-913116.7
 S, KJ/(KG)(K)   164.1406 164.1700 164.1994 164.2288 162.9822 163.0121 163.0420 163.0718

 M, (1/n)           1.010    1.010    1.010    1.010    1.011    1.011    1.011    1.011
 (dLV/dLP)t      -1.00344 -1.00342 -1.00340 -1.00338 -1.00403 -1.00400 -1.00397 -1.00395
 (dLV/dLT)p        1.0299   1.0298   1.0297   1.0296   1.0334   1.0332   1.0330   1.0329
 Cp, KJ/(KG)(K)   23.4325  23.4371  23.4421  23.4475  23.4811  23.4794  23.4781  23.4772
 GAMMAs            1.5850   1.5847   1.5844   1.5841   1.5871   1.5870   1.5868   1.5867
 SON VEL,M/SEC    10189.6  10195.3  10200.9  10206.5  10121.8  10128.0  10134.2  10140.4

 TRANSPORT PROPERTIES (GASES ONLY)
   CONDUCTIVITY IN UNITS OF MILLIWATTS/(CM)(K)

 VISC,MILLIPOISE  0.82495  0.82581  0.82666  0.82752  0.81630  0.81717  0.81803  0.81890

  WITH EQUILIBRIUM REACTIONS

 Cp, KJ/(KG)(K)   23.4325  23.4371  23.4421  23.4475  23.4811  23.4794  23.4781  23.4772
 CONDUCTIVITY     27.8006  27.8146  27.8289  27.8435  27.8787  27.8874  27.8964  27.9057
 PRANDTL NUMBER    0.6953   0.6958   0.6964   0.6969   0.6875   0.6880   0.6885   0.6889

  WITH FROZEN REACTIONS

 Cp, KJ/(KG)(K)   20.6512  20.6514  20.6516  20.6517  20.6488  20.6489  20.6491  20.6492
 CONDUCTIVITY     25.5901  25.6190  25.6480  25.6769  25.2843  25.3133  25.3423  25.3714
 PRANDTL NUMBER    0.6657   0.6657   0.6656   0.6656   0.6666   0.6666   0.6665   0.6665

 MASS FRACTIONS

 *H               0.99308  0.99312  0.99316  0.99320  0.99189  0.99195  0.99201  0.99206
 *H+              0.00074  0.00076  0.00077  0.00078  0.00061  0.00061  0.00062  0.00063
 *H2              0.00617  0.00612  0.00606  0.00601  0.00749  0.00743  0.00736  0.00730
 *H2+             0.00001  0.00001  0.00001  0.00001  0.00001  0.00001  0.00001  0.00001

  * THERMODYNAMIC PROPERTIES FITTED TO 20000.K

 NOTE. WEIGHT FRACTION OF FUEL IN TOTAL FUELS AND OF OXIDANT IN TOTAL OXIDANTS









               THERMODYNAMIC EQUILIBRIUM PROPERTIES AT ASSIGNED

                           TEMPERATURE AND PRESSURE

 CASE =                

             REACTANT                    WT FRACTION      ENERGY      TEMP
                                          (SEE NOTE)     KJ/KG-MOL      K  
 FUEL        H2                           1.0000000         0.000      0.000
 OXIDANT     H2                           1.0000000         0.000      0.000

 O/F=    1.00000  %FUEL= 50.000000  R,EQ.RATIO= 0.000000  PHI,EQ.RATIO=-1.000000

 THERMODYNAMIC PROPERTIES

 P, BAR            9.1000   9.1000   9.1000   9.1000   9.1000   9.1000   9.1000   9.1000
 T, K             7890.00  7900.00  7910.00  7920.00  7930.00  7940.00  7950.00  7960.00
 RHO, KG/CU M    1.4024-2 1.4005-2 1.3987-2 1.3969-2 1.3950-2 1.3932-2 1.3914-2 1.3896-2
 H, KJ/KG        372123.6 372358.4 372593.1 372827.9 373062.7 373297.5 373532.3 373767.1
 U, KJ/KG        307232.6 307382.4 307532.3 307682.1 307832.0 307981.9 308131.8 308281.8
 G, KJ/KG       -914747.6-916378.8-918010.2-919642.0-921274.0-922906.4-924539.0-926172.0
 S, KJ/(KG)(K)   163.1015 163.1313 163.1610 163.1906 163.2203 163.2499 163.2794 163.3089

 M, (1/n)           1.011    1.011    1.011    1.011    1.011    1.011    1.011    1.011
 (dLV/dLP)t      -1.00392 -1.00389 -1.00386 -1.00384 -1.00381 -1.00379 -1.00376 -1.00374
 (dLV/dLT)p        1.0327   1.0325   1.0324   1.0322   1.0321   1.0319   1.0318   1.0317
 Cp, KJ/(KG)(K)   23.4766  23.4765  23.4767  23.4773  23.4783  23.4796  23.4813  23.4833
 GAMMAs            1.5865   1.5863   1.5862   1.5860   1.5858   1.5856   1.5853   1.5851
 SON VEL,M/SEC    10146.5  10152.5  10158.6  10164.6  10170.6  10176.5  10182.4  10188.3

 TRANSPORT PROPERTIES (GASES ONLY)
   CONDUCTIVITY IN UNITS OF MILLIWATTS/(CM)(K)

 VISC,MILLIPOISE  0.81976  0.82063  0.82149  0.82235  0.82321  0.82408  0.82494  0.82580

  WITH EQUILIBRIUM REACTIONS

 Cp, KJ/(KG)(K)   23.4766  23.4765  23.4767  23.4773  23.4783  23.4796  23.4813  23.4833
 CONDUCTIVITY     27.9153  27.9252  27.9355  27.9460  27.9568  27.9680  27.9794  27.9911
 PRANDTL NUMBER    0.6894   0.6899   0.6904   0.6909   0.6913   0.6918   0.6923   0.6928

  WITH FROZEN REACTIONS

 Cp, KJ/(KG)(K)   20.6494  20.6496  20.6497  20.6499  20.6500  20.6502  20.6503  20.6505
 CONDUCTIVITY     25.4004  25.4294  25.4584  25.4875  25.5165  25.5454  25.5744  25.6034
 PRANDTL NUMBER    0.6664   0.6664   0.6663   0.6663   0.6662   0.6662   0.6661   0.6660

 MASS FRACTIONS

 *H               0.99212  0.99217  0.99223  0.99228  0.99233  0.99238  0.99243  0.99248
 *H+              0.00064  0.00065  0.00066  0.00067  0.00068  0.00069  0.00070  0.00071
 *H2              0.00723  0.00717  0.00710  0.00704  0.00698  0.00692  0.00686  0.00680
 *H2+             0.00001  0.00001  0.00001  0.00001  0.00001  0.00001  0.00001  0.00001

  * THERMODYNAMIC PROPERTIES FITTED TO 20000.K

 NOTE. WEIGHT FRACTION OF FUEL IN TOTAL FUELS AND OF OXIDANT IN TOTAL OXIDANTS









               THERMODYNAMIC EQUILIBRIUM PROPERTIES AT ASSIGNED

                           TEMPERATURE AND PRESSURE

 CASE =                

             REACTANT                    WT FRACTION      ENERGY      TEMP
                                          (SEE NOTE)     KJ/KG-MOL      K  
 FUEL        H2                           1.0000000         0.000      0.000
 OXIDANT     H2                           1.0000000         0.000      0.000

 O/F=    1.00000  %FUEL= 50.000000  R,EQ.RATIO= 0.000000  PHI,EQ.RATIO=-1.000000

 THERMODYNAMIC PROPERTIES

 P, BAR            9.1000   9.1000   9.1000   10.000   10.000   10.000   10.000   10.000
 T, K             7970.00  7980.00  7990.00  7850.00  7860.00  7870.00  7880.00  7890.00
 RHO, KG/CU M    1.3878-2 1.3860-2 1.3842-2 1.5498-2 1.5477-2 1.5457-2 1.5437-2 1.5416-2
 H, KJ/KG        374001.9 374236.8 374471.7 370974.6 371210.3 371446.0 371681.6 371917.2
 U, KJ/KG        308431.7 308581.8 308731.8 306449.0 306599.6 306750.1 306900.6 307051.1
 G, KJ/KG       -927805.2-929438.7-931072.6-902139.2-903761.2-905383.4-907006.0-908628.8
 S, KJ/(KG)(K)   163.3384 163.3679 163.3973 162.1801 162.2101 162.2401 162.2700 162.2999

 M, (1/n)           1.011    1.011    1.011    1.012    1.011    1.011    1.011    1.011
 (dLV/dLP)t      -1.00371 -1.00369 -1.00367 -1.00438 -1.00434 -1.00431 -1.00428 -1.00425
 (dLV/dLT)p        1.0315   1.0314   1.0313   1.0356   1.0354   1.0352   1.0350   1.0348
 Cp, KJ/(KG)(K)   23.4857  23.4885  23.4917  23.5705  23.5665  23.5628  23.5595  23.5566
 GAMMAs            1.5849   1.5846   1.5844   1.5864   1.5863   1.5862   1.5861   1.5860
 SON VEL,M/SEC    10194.1  10199.9  10205.7  10117.5  10123.9  10130.2  10136.6  10142.8

 TRANSPORT PROPERTIES (GASES ONLY)
   CONDUCTIVITY IN UNITS OF MILLIWATTS/(CM)(K)

 VISC,MILLIPOISE  0.82666  0.82752  0.82837  0.81716  0.81802  0.81889  0.81975  0.82062

  WITH EQUILIBRIUM REACTIONS

 Cp, KJ/(KG)(K)   23.4857  23.4885  23.4917  23.5705  23.5665  23.5628  23.5595  23.5566
 CONDUCTIVITY     28.0031  28.0154  28.0280  28.1066  28.1128  28.1194  28.1263  28.1336
 PRANDTL NUMBER    0.6933   0.6938   0.6943   0.6853   0.6857   0.6862   0.6867   0.6871

  WITH FROZEN REACTIONS

 Cp, KJ/(KG)(K)   20.6506  20.6508  20.6509  20.6482  20.6484  20.6485  20.6487  20.6488
 CONDUCTIVITY     25.6324  25.6613  25.6903  25.2979  25.3269  25.3559  25.3849  25.4139
 PRANDTL NUMBER    0.6660   0.6659   0.6659   0.6670   0.6669   0.6669   0.6668   0.6667

 MASS FRACTIONS

 *H               0.99253  0.99258  0.99263  0.99119  0.99125  0.99132  0.99138  0.99144
 *H+              0.00072  0.00073  0.00074  0.00058  0.00059  0.00059  0.00060  0.00061
 *H2              0.00674  0.00668  0.00662  0.00823  0.00815  0.00808  0.00801  0.00794
 *H2+             0.00001  0.00001  0.00001  0.00001  0.00001  0.00001  0.00001  0.00001

  * THERMODYNAMIC PROPERTIES FITTED TO 20000.K

 NOTE. WEIGHT FRACTION OF FUEL IN TOTAL FUELS AND OF OXIDANT IN TOTAL OXIDANTS









               THERMODYNAMIC EQUILIBRIUM PROPERTIES AT ASSIGNED

                           TEMPERATURE AND PRESSURE

 CASE =                

             REACTANT                    WT FRACTION      ENERGY      TEMP
                                          (SEE NOTE)     KJ/KG-MOL      K  
 FUEL        H2                           1.0000000         0.000      0.000
 OXIDANT     H2                           1.0000000         0.000      0.000

 O/F=    1.00000  %FUEL= 50.000000  R,EQ.RATIO= 0.000000  PHI,EQ.RATIO=-1.000000

 THERMODYNAMIC PROPERTIES

 P, BAR            10.000   10.000   10.000   10.000   10.000   10.000   10.000   10.000
 T, K             7900.00  7910.00  7920.00  7930.00  7940.00  7950.00  7960.00  7970.00
 RHO, KG/CU M    1.5396-2 1.5376-2 1.5356-2 1.5336-2 1.5316-2 1.5296-2 1.5276-2 1.5256-2
 H, KJ/KG        372152.7 372388.2 372623.8 372859.3 373094.7 373330.2 373565.7 373801.2
 U, KJ/KG        307201.6 307352.1 307502.5 307653.0 307803.5 307953.9 308104.4 308254.9
 G, KJ/KG       -910252.0-911875.4-913499.2-915123.2-916747.6-918372.2-919997.1-921622.4
 S, KJ/(KG)(K)   162.3297 162.3595 162.3893 162.4190 162.4487 162.4783 162.5079 162.5375

 M, (1/n)           1.011    1.011    1.011    1.011    1.011    1.011    1.011    1.011
 (dLV/dLP)t      -1.00422 -1.00419 -1.00416 -1.00413 -1.00411 -1.00408 -1.00405 -1.00402
 (dLV/dLT)p        1.0346   1.0345   1.0343   1.0341   1.0339   1.0338   1.0336   1.0334
 Cp, KJ/(KG)(K)   23.5541  23.5520  23.5503  23.5490  23.5480  23.5475  23.5473  23.5474
 GAMMAs            1.5859   1.5857   1.5856   1.5854   1.5853   1.5851   1.5849   1.5848
 SON VEL,M/SEC    10149.1  10155.3  10161.5  10167.6  10173.8  10179.8  10185.9  10191.9

 TRANSPORT PROPERTIES (GASES ONLY)
   CONDUCTIVITY IN UNITS OF MILLIWATTS/(CM)(K)

 VISC,MILLIPOISE  0.82148  0.82234  0.82321  0.82407  0.82493  0.82579  0.82665  0.82751

  WITH EQUILIBRIUM REACTIONS

 Cp, KJ/(KG)(K)   23.5541  23.5520  23.5503  23.5490  23.5480  23.5475  23.5473  23.5474
 CONDUCTIVITY     28.1412  28.1491  28.1574  28.1660  28.1749  28.1841  28.1937  28.2035
 PRANDTL NUMBER    0.6876   0.6880   0.6885   0.6890   0.6895   0.6899   0.6904   0.6909

  WITH FROZEN REACTIONS

 Cp, KJ/(KG)(K)   20.6489  20.6491  20.6492  20.6494  20.6495  20.6496  20.6498  20.6499
 CONDUCTIVITY     25.4430  25.4720  25.5009  25.5299  25.5589  25.5879  25.6169  25.6458
 PRANDTL NUMBER    0.6667   0.6666   0.6666   0.6665   0.6665   0.6664   0.6664   0.6663

 MASS FRACTIONS

 *H               0.99150  0.99156  0.99162  0.99168  0.99174  0.99179  0.99185  0.99191
 *H+              0.00062  0.00063  0.00064  0.00065  0.00066  0.00067  0.00068  0.00069
 *H2              0.00787  0.00780  0.00773  0.00766  0.00760  0.00753  0.00746  0.00740
 *H2+             0.00001  0.00001  0.00001  0.00001  0.00001  0.00001  0.00001  0.00001

  * THERMODYNAMIC PROPERTIES FITTED TO 20000.K

 NOTE. WEIGHT FRACTION OF FUEL IN TOTAL FUELS AND OF OXIDANT IN TOTAL OXIDANTS









               THERMODYNAMIC EQUILIBRIUM PROPERTIES AT ASSIGNED

                           TEMPERATURE AND PRESSURE

 CASE =                

             REACTANT                    WT FRACTION      ENERGY      TEMP
                                          (SEE NOTE)     KJ/KG-MOL      K  
 FUEL        H2                           1.0000000         0.000      0.000
 OXIDANT     H2                           1.0000000         0.000      0.000

 O/F=    1.00000  %FUEL= 50.000000  R,EQ.RATIO= 0.000000  PHI,EQ.RATIO=-1.000000

 THERMODYNAMIC PROPERTIES

 P, BAR            10.000   10.000   11.000   11.000   11.000   11.000   11.000   11.000
 T, K             7980.00  7990.00  7850.00  7860.00  7870.00  7880.00  7890.00  7900.00
 RHO, KG/CU M    1.5237-2 1.5217-2 1.7055-2 1.7032-2 1.7010-2 1.6988-2 1.6965-2 1.6943-2
 H, KJ/KG        374036.6 374272.1 370748.0 370984.7 371221.4 371458.0 371694.6 371931.1
 U, KJ/KG        308405.4 308555.9 306250.4 306401.9 306553.3 306704.7 306856.0 307007.3
 G, KJ/KG       -923247.9-924873.7-895990.6-897604.4-899218.6-900833.0-902447.7-904062.8
 S, KJ/(KG)(K)   162.5670 162.5965 161.3680 161.3981 161.4282 161.4583 161.4883 161.5182

 M, (1/n)           1.011    1.011    1.012    1.012    1.012    1.012    1.012    1.012
 (dLV/dLP)t      -1.00400 -1.00397 -1.00476 -1.00473 -1.00469 -1.00466 -1.00462 -1.00459
 (dLV/dLT)p        1.0333   1.0331   1.0382   1.0379   1.0377   1.0375   1.0372   1.0370
 Cp, KJ/(KG)(K)   23.5480  23.5489  23.6780  23.6714  23.6652  23.6594  23.6540  23.6491
 GAMMAs            1.5846   1.5844   1.5853   1.5853   1.5853   1.5852   1.5852   1.5851
 SON VEL,M/SEC    10197.9  10203.8  10111.9  10118.5  10125.0  10131.5  10138.0  10144.4

 TRANSPORT PROPERTIES (GASES ONLY)
   CONDUCTIVITY IN UNITS OF MILLIWATTS/(CM)(K)

 VISC,MILLIPOISE  0.82837  0.82923  0.81807  0.81894  0.81980  0.82066  0.82153  0.82239

  WITH EQUILIBRIUM REACTIONS

 Cp, KJ/(KG)(K)   23.5480  23.5489  23.6780  23.6714  23.6652  23.6594  23.6540  23.6491
 CONDUCTIVITY     28.2137  28.2241  28.3600  28.3635  28.3675  28.3718  28.3765  28.3815
 PRANDTL NUMBER    0.6914   0.6919   0.6830   0.6835   0.6839   0.6844   0.6848   0.6853

  WITH FROZEN REACTIONS

 Cp, KJ/(KG)(K)   20.6501  20.6502  20.6477  20.6478  20.6480  20.6481  20.6482  20.6483
 CONDUCTIVITY     25.6748  25.7037  25.3125  25.3415  25.3705  25.3995  25.4285  25.4574
 PRANDTL NUMBER    0.6663   0.6662   0.6673   0.6673   0.6672   0.6671   0.6671   0.6670

 MASS FRACTIONS

 *H               0.99196  0.99201  0.99040  0.99047  0.99054  0.99062  0.99068  0.99075
 *H+              0.00070  0.00070  0.00055  0.00056  0.00057  0.00057  0.00058  0.00059
 *H2              0.00734  0.00727  0.00904  0.00896  0.00888  0.00880  0.00872  0.00865
 *H2+             0.00001  0.00001  0.00001  0.00001  0.00001  0.00001  0.00001  0.00001

  * THERMODYNAMIC PROPERTIES FITTED TO 20000.K

 NOTE. WEIGHT FRACTION OF FUEL IN TOTAL FUELS AND OF OXIDANT IN TOTAL OXIDANTS









               THERMODYNAMIC EQUILIBRIUM PROPERTIES AT ASSIGNED

                           TEMPERATURE AND PRESSURE

 CASE =                

             REACTANT                    WT FRACTION      ENERGY      TEMP
                                          (SEE NOTE)     KJ/KG-MOL      K  
 FUEL        H2                           1.0000000         0.000      0.000
 OXIDANT     H2                           1.0000000         0.000      0.000

 O/F=    1.00000  %FUEL= 50.000000  R,EQ.RATIO= 0.000000  PHI,EQ.RATIO=-1.000000

 THERMODYNAMIC PROPERTIES

 P, BAR            11.000   11.000   11.000   11.000   11.000   11.000   11.000   11.000
 T, K             7910.00  7920.00  7930.00  7940.00  7950.00  7960.00  7970.00  7980.00
 RHO, KG/CU M    1.6921-2 1.6899-2 1.6876-2 1.6854-2 1.6832-2 1.6811-2 1.6789-2 1.6767-2
 H, KJ/KG        372167.6 372404.0 372640.4 372876.7 373113.1 373349.3 373585.6 373821.9
 U, KJ/KG        307158.5 307309.7 307460.9 307612.1 307763.2 307914.4 308065.5 308216.6
 G, KJ/KG       -905678.1-907293.7-908909.7-910525.9-912142.4-913759.2-915376.4-916993.8
 S, KJ/(KG)(K)   161.5481 161.5780 161.6078 161.6376 161.6674 161.6971 161.7267 161.7563

 M, (1/n)           1.012    1.012    1.012    1.012    1.011    1.011    1.011    1.011
 (dLV/dLP)t      -1.00456 -1.00452 -1.00449 -1.00446 -1.00443 -1.00440 -1.00437 -1.00434
 (dLV/dLT)p        1.0368   1.0366   1.0364   1.0362   1.0360   1.0358   1.0356   1.0354
 Cp, KJ/(KG)(K)   23.6445  23.6404  23.6366  23.6333  23.6303  23.6277  23.6255  23.6237
 GAMMAs            1.5850   1.5849   1.5848   1.5847   1.5846   1.5845   1.5843   1.5842
 SON VEL,M/SEC    10150.8  10157.2  10163.5  10169.8  10176.1  10182.3  10188.5  10194.7

 TRANSPORT PROPERTIES (GASES ONLY)
   CONDUCTIVITY IN UNITS OF MILLIWATTS/(CM)(K)

 VISC,MILLIPOISE  0.82325  0.82411  0.82497  0.82583  0.82669  0.82755  0.82841  0.82927

  WITH EQUILIBRIUM REACTIONS

 Cp, KJ/(KG)(K)   23.6445  23.6404  23.6366  23.6333  23.6303  23.6277  23.6255  23.6237
 CONDUCTIVITY     28.3869  28.3927  28.3988  28.4053  28.4121  28.4193  28.4268  28.4346
 PRANDTL NUMBER    0.6857   0.6862   0.6866   0.6871   0.6876   0.6880   0.6885   0.6890

  WITH FROZEN REACTIONS

 Cp, KJ/(KG)(K)   20.6485  20.6486  20.6487  20.6489  20.6490  20.6491  20.6492  20.6494
 CONDUCTIVITY     25.4864  25.5154  25.5443  25.5733  25.6023  25.6312  25.6602  25.6891
 PRANDTL NUMBER    0.6670   0.6669   0.6669   0.6668   0.6668   0.6667   0.6666   0.6666

 MASS FRACTIONS

 *H               0.99082  0.99089  0.99095  0.99102  0.99108  0.99114  0.99121  0.99127
 *H+              0.00060  0.00061  0.00062  0.00063  0.00063  0.00064  0.00065  0.00066
 *H2              0.00857  0.00850  0.00842  0.00835  0.00827  0.00820  0.00813  0.00806
 *H2+             0.00001  0.00001  0.00001  0.00001  0.00001  0.00001  0.00001  0.00001

  * THERMODYNAMIC PROPERTIES FITTED TO 20000.K

 NOTE. WEIGHT FRACTION OF FUEL IN TOTAL FUELS AND OF OXIDANT IN TOTAL OXIDANTS









               THERMODYNAMIC EQUILIBRIUM PROPERTIES AT ASSIGNED

                           TEMPERATURE AND PRESSURE

 CASE =                

             REACTANT                    WT FRACTION      ENERGY      TEMP
                                          (SEE NOTE)     KJ/KG-MOL      K  
 FUEL        H2                           1.0000000         0.000      0.000
 OXIDANT     H2                           1.0000000         0.000      0.000

 O/F=    1.00000  %FUEL= 50.000000  R,EQ.RATIO= 0.000000  PHI,EQ.RATIO=-1.000000

 THERMODYNAMIC PROPERTIES

 P, BAR            11.000
 T, K             7990.00
 RHO, KG/CU M    1.6745-2
 H, KJ/KG        374058.1
 U, KJ/KG        308367.7
 G, KJ/KG       -918611.5
 S, KJ/(KG)(K)   161.7859

 M, (1/n)           1.011
 (dLV/dLP)t      -1.00431
 (dLV/dLT)p        1.0353
 Cp, KJ/(KG)(K)   23.6223
 GAMMAs            1.5841
 SON VEL,M/SEC    10200.8

 TRANSPORT PROPERTIES (GASES ONLY)
   CONDUCTIVITY IN UNITS OF MILLIWATTS/(CM)(K)

 VISC,MILLIPOISE  0.83013

  WITH EQUILIBRIUM REACTIONS

 Cp, KJ/(KG)(K)   23.6223
 CONDUCTIVITY     28.4427
 PRANDTL NUMBER    0.6894

  WITH FROZEN REACTIONS

 Cp, KJ/(KG)(K)   20.6495
 CONDUCTIVITY     25.7180
 PRANDTL NUMBER    0.6665

 MASS FRACTIONS

 *H               0.99133
 *H+              0.00067
 *H2              0.00799
 *H2+             0.00001

  * THERMODYNAMIC PROPERTIES FITTED TO 20000.K

 NOTE. WEIGHT FRACTION OF FUEL IN TOTAL FUELS AND OF OXIDANT IN TOTAL OXIDANTS



  
