
 *******************************************************************************

         NASA-GLENN CHEMICAL EQUILIBRIUM PROGRAM CEA2, MAY 21, 2004
                   BY  BONNIE MCBRIDE AND SANFORD GORDON
      REFS: NASA RP-1311, PART I, 1994 AND NASA RP-1311, PART II, 1996

 *******************************************************************************



  prob tp ions
  p,bar= 0.54,0.6,0.67,0.74,0.825,0.91,1.0,1.1,1.2,1.32,1.48,1.65,1.8,2.0,2.25
  t,k= 3050,3060,3070,3080,3090,3100,3110,3120,3130,3140,3150,3160,3170,3180,3190
  
  
  reac
  fuel H2                wt%=100.0000
  oxid H2                wt%=100.0000
  
  output short
  
  output massf
  
  output siunits
  
  output transport
  
 end





               THERMODYNAMIC EQUILIBRIUM PROPERTIES AT ASSIGNED

                           TEMPERATURE AND PRESSURE

 CASE =                

             REACTANT                    WT FRACTION      ENERGY      TEMP
                                          (SEE NOTE)     KJ/KG-MOL      K  
 FUEL        H2                           1.0000000         0.000      0.000
 OXIDANT     H2                           1.0000000         0.000      0.000

 O/F=    1.00000  %FUEL= 50.000000  R,EQ.RATIO= 0.000000  PHI,EQ.RATIO=-1.000000

 THERMODYNAMIC PROPERTIES

 P, BAR           0.54000  0.54000  0.54000  0.54000  0.54000  0.54000  0.54000  0.54000
 T, K             3050.00  3060.00  3070.00  3080.00  3090.00  3100.00  3110.00  3120.00
 RHO, KG/CU M    3.8184-3 3.7935-3 3.7686-3 3.7437-3 3.7188-3 3.6938-3 3.6688-3 3.6438-3
 H, KJ/KG         73263.6  74288.9  75332.9  76395.7  77477.5  78578.4  79698.7  80838.4
 U, KJ/KG         59121.6  60054.2  61004.1  61971.5  62956.5  63959.3  64980.0  66018.7
 G, KJ/KG       -273851.9-274990.4-276133.5-277280.1-278430.1-279583.7-280740.8-281901.6
 S, KJ/(KG)(K)   113.8084 114.1436 114.4842 114.8298 115.1805 115.5362 115.8969 116.2628

 M, (1/n)           1.793    1.787    1.781    1.775    1.769    1.763    1.757    1.750
 (dLV/dLP)t      -1.05438 -1.05576 -1.05715 -1.05855 -1.05997 -1.06141 -1.06286 -1.06432
 (dLV/dLT)p        1.9861   2.0078   2.0296   2.0516   2.0738   2.0960   2.1183   2.1408
 Cp, KJ/(KG)(K)  101.6193 103.4691 105.3383 107.2262 109.1322 111.0554 112.9952 114.9506
 GAMMAs            1.1436   1.1435   1.1433   1.1432   1.1431   1.1430   1.1430   1.1429
 SON VEL,M/SEC     4021.6   4034.5   4047.6   4060.8   4074.2   4087.8   4101.6   4115.6

 TRANSPORT PROPERTIES (GASES ONLY)
   CONDUCTIVITY IN UNITS OF MILLIWATTS/(CM)(K)

 VISC,MILLIPOISE  0.50867  0.51085  0.51302  0.51519  0.51736  0.51952  0.52166  0.52380

  WITH EQUILIBRIUM REACTIONS

 Cp, KJ/(KG)(K)  101.6193 103.4691 105.3383 107.2262 109.1322 111.0554 112.9952 114.9506
 CONDUCTIVITY    109.7240 111.8690 114.0279 116.1987 118.3802 120.5710 122.7697 124.9747
 PRANDTL NUMBER    0.4711   0.4725   0.4739   0.4754   0.4769   0.4785   0.4801   0.4818

  WITH FROZEN REACTIONS

 Cp, KJ/(KG)(K)   18.7188  18.7364  18.7541  18.7718  18.7896  18.8075  18.8254  18.8434
 CONDUCTIVITY     13.7095  13.7772  13.8452  13.9130  13.9804  14.0474  14.1140  14.1800
 PRANDTL NUMBER    0.6945   0.6947   0.6949   0.6951   0.6953   0.6956   0.6958   0.6961

 MASS FRACTIONS

 *H               0.12419  0.12786  0.13162  0.13545  0.13937  0.14337  0.14746  0.15162
 *H2              0.87581  0.87214  0.86838  0.86455  0.86063  0.85663  0.85254  0.84838

  * THERMODYNAMIC PROPERTIES FITTED TO 20000.K

 NOTE. WEIGHT FRACTION OF FUEL IN TOTAL FUELS AND OF OXIDANT IN TOTAL OXIDANTS









               THERMODYNAMIC EQUILIBRIUM PROPERTIES AT ASSIGNED

                           TEMPERATURE AND PRESSURE

 CASE =                

             REACTANT                    WT FRACTION      ENERGY      TEMP
                                          (SEE NOTE)     KJ/KG-MOL      K  
 FUEL        H2                           1.0000000         0.000      0.000
 OXIDANT     H2                           1.0000000         0.000      0.000

 O/F=    1.00000  %FUEL= 50.000000  R,EQ.RATIO= 0.000000  PHI,EQ.RATIO=-1.000000

 THERMODYNAMIC PROPERTIES

 P, BAR           0.54000  0.54000  0.54000  0.54000  0.54000  0.54000  0.54000  0.60000
 T, K             3130.00  3140.00  3150.00  3160.00  3170.00  3180.00  3190.00  3050.00
 RHO, KG/CU M    3.6188-3 3.5938-3 3.5688-3 3.5438-3 3.5187-3 3.4937-3 3.4687-3 4.2665-3
 H, KJ/KG         81997.7  83176.8  84375.9  85594.9  86834.1  88093.5  89373.3  71830.6
 U, KJ/KG         67075.7  68150.9  69244.6  70356.8  71487.7  72637.2  73805.6  57767.6
 G, KJ/KG       -283066.1-284234.3-285406.3-286582.2-287761.9-288945.6-290133.2-272364.9
 S, KJ/(KG)(K)   116.6338 117.0099 117.3912 117.7776 118.1691 118.5658 118.9676 112.8510

 M, (1/n)           1.744    1.738    1.731    1.724    1.717    1.711    1.704    1.803
 (dLV/dLP)t      -1.06579 -1.06727 -1.06877 -1.07027 -1.07178 -1.07330 -1.07482 -1.05200
 (dLV/dLT)p        2.1633   2.1858   2.2084   2.2310   2.2536   2.2762   2.2988   1.9429
 Cp, KJ/(KG)(K)  116.9208 118.9048 120.9016 122.9101 124.9292 126.9576 128.9941  97.5337
 GAMMAs            1.1429   1.1429   1.1429   1.1429   1.1429   1.1429   1.1430   1.1448
 SON VEL,M/SEC     4129.7   4144.0   4158.5   4173.2   4188.0   4203.0   4218.3   4012.3

 TRANSPORT PROPERTIES (GASES ONLY)
   CONDUCTIVITY IN UNITS OF MILLIWATTS/(CM)(K)

 VISC,MILLIPOISE  0.52593  0.52805  0.53015  0.53223  0.53430  0.53635  0.53838  0.50719

  WITH EQUILIBRIUM REACTIONS

 Cp, KJ/(KG)(K)  116.9208 118.9048 120.9016 122.9101 124.9292 126.9576 128.9941  97.5337
 CONDUCTIVITY    127.1846 129.3977 131.6124 133.8269 136.0395 138.2484 140.4517 105.4742
 PRANDTL NUMBER    0.4835   0.4852   0.4870   0.4888   0.4907   0.4925   0.4945   0.4690

  WITH FROZEN REACTIONS

 Cp, KJ/(KG)(K)   18.8615  18.8796  18.8977  18.9159  18.9342  18.9526  18.9709  18.7051
 CONDUCTIVITY     14.2455  14.3104  14.3747  14.4383  14.5012  14.5633  14.6247  13.6626
 PRANDTL NUMBER    0.6963   0.6966   0.6970   0.6973   0.6976   0.6980   0.6984   0.6944

 MASS FRACTIONS

 *H               0.15588  0.16022  0.16464  0.16915  0.17375  0.17844  0.18321  0.11791
 *H2              0.84412  0.83978  0.83536  0.83085  0.82625  0.82156  0.81679  0.88209

  * THERMODYNAMIC PROPERTIES FITTED TO 20000.K

 NOTE. WEIGHT FRACTION OF FUEL IN TOTAL FUELS AND OF OXIDANT IN TOTAL OXIDANTS









               THERMODYNAMIC EQUILIBRIUM PROPERTIES AT ASSIGNED

                           TEMPERATURE AND PRESSURE

 CASE =                

             REACTANT                    WT FRACTION      ENERGY      TEMP
                                          (SEE NOTE)     KJ/KG-MOL      K  
 FUEL        H2                           1.0000000         0.000      0.000
 OXIDANT     H2                           1.0000000         0.000      0.000

 O/F=    1.00000  %FUEL= 50.000000  R,EQ.RATIO= 0.000000  PHI,EQ.RATIO=-1.000000

 THERMODYNAMIC PROPERTIES

 P, BAR           0.60000  0.60000  0.60000  0.60000  0.60000  0.60000  0.60000  0.60000
 T, K             3060.00  3070.00  3080.00  3090.00  3100.00  3110.00  3120.00  3130.00
 RHO, KG/CU M    4.2393-3 4.2121-3 4.1849-3 4.1576-3 4.1303-3 4.1030-3 4.0756-3 4.0483-3
 H, KJ/KG         72814.8  73816.7  74836.7  75874.9  76931.4  78006.5  79100.2  80212.9
 U, KJ/KG         58661.6  59572.1  60499.3  61443.4  62404.6  63382.9  64378.6  65391.8
 G, KJ/KG       -273494.9-274628.3-275764.9-276904.9-278048.3-279195.1-280345.4-281499.3
 S, KJ/(KG)(K)   113.1731 113.5000 113.8317 114.1682 114.5096 114.8558 115.2069 115.5630

 M, (1/n)           1.798    1.792    1.786    1.780    1.774    1.768    1.762    1.756
 (dLV/dLP)t      -1.05333 -1.05468 -1.05604 -1.05742 -1.05881 -1.06021 -1.06164 -1.06307
 (dLV/dLT)p        1.9639   1.9851   2.0065   2.0280   2.0496   2.0713   2.0932   2.1152
 Cp, KJ/(KG)(K)   99.3044 101.0947 102.9039 104.7314 106.5768 108.4392 110.3181 112.2125
 GAMMAs            1.1446   1.1444   1.1443   1.1441   1.1440   1.1439   1.1439   1.1438
 SON VEL,M/SEC     4024.8   4037.5   4050.4   4063.5   4076.7   4090.0   4103.6   4117.3

 TRANSPORT PROPERTIES (GASES ONLY)
   CONDUCTIVITY IN UNITS OF MILLIWATTS/(CM)(K)

 VISC,MILLIPOISE  0.50937  0.51154  0.51372  0.51589  0.51805  0.52021  0.52236  0.52450

  WITH EQUILIBRIUM REACTIONS

 Cp, KJ/(KG)(K)   99.3044 101.0947 102.9039 104.7314 106.5768 108.4392 110.3181 112.2125
 CONDUCTIVITY    107.5556 109.6517 111.7613 113.8834 116.0167 118.1599 120.3118 122.4709
 PRANDTL NUMBER    0.4703   0.4716   0.4730   0.4744   0.4759   0.4774   0.4790   0.4806

  WITH FROZEN REACTIONS

 Cp, KJ/(KG)(K)   18.7224  18.7398  18.7572  18.7747  18.7922  18.8098  18.8274  18.8451
 CONDUCTIVITY     13.7312  13.7996  13.8678  13.9357  14.0032  14.0703  14.1371  14.2033
 PRANDTL NUMBER    0.6945   0.6947   0.6948   0.6950   0.6952   0.6954   0.6957   0.6959

 MASS FRACTIONS

 *H               0.12140  0.12497  0.12862  0.13235  0.13615  0.14004  0.14401  0.14806
 *H2              0.87860  0.87503  0.87138  0.86765  0.86385  0.85996  0.85599  0.85194

  * THERMODYNAMIC PROPERTIES FITTED TO 20000.K

 NOTE. WEIGHT FRACTION OF FUEL IN TOTAL FUELS AND OF OXIDANT IN TOTAL OXIDANTS









               THERMODYNAMIC EQUILIBRIUM PROPERTIES AT ASSIGNED

                           TEMPERATURE AND PRESSURE

 CASE =                

             REACTANT                    WT FRACTION      ENERGY      TEMP
                                          (SEE NOTE)     KJ/KG-MOL      K  
 FUEL        H2                           1.0000000         0.000      0.000
 OXIDANT     H2                           1.0000000         0.000      0.000

 O/F=    1.00000  %FUEL= 50.000000  R,EQ.RATIO= 0.000000  PHI,EQ.RATIO=-1.000000

 THERMODYNAMIC PROPERTIES

 P, BAR           0.60000  0.60000  0.60000  0.60000  0.60000  0.60000  0.67000  0.67000
 T, K             3140.00  3150.00  3160.00  3170.00  3180.00  3190.00  3050.00  3060.00
 RHO, KG/CU M    4.0209-3 3.9935-3 3.9662-3 3.9388-3 3.9114-3 3.8840-3 4.7911-3 4.7612-3
 H, KJ/KG         81344.5  82495.4  83665.5  84855.0  86064.1  87292.8  70405.5  71348.4
 U, KJ/KG         66422.6  67471.1  68537.5  69621.9  70724.4  71845.0  56421.1  57276.3
 G, KJ/KG       -282656.7-283817.8-284982.5-286151.0-287323.3-288499.4-270817.4-271937.7
 S, KJ/(KG)(K)   115.9240 116.2899 116.6608 117.0366 117.4174 117.8032 111.8764 112.1850

 M, (1/n)           1.750    1.743    1.737    1.730    1.724    1.717    1.813    1.808
 (dLV/dLP)t      -1.06451 -1.06597 -1.06744 -1.06892 -1.07040 -1.07189 -1.04959 -1.05088
 (dLV/dLT)p        2.1372   2.1593   2.1814   2.2036   2.2258   2.2480   1.8993   1.9196
 Cp, KJ/(KG)(K)  114.1218 116.0449 117.9811 119.9292 121.8884 123.8574  93.4515  95.1414
 GAMMAs            1.1438   1.1437   1.1437   1.1437   1.1437   1.1438   1.1460   1.1458
 SON VEL,M/SEC     4131.2   4145.3   4159.6   4174.0   4188.6   4203.4   4003.2   4015.4

 TRANSPORT PROPERTIES (GASES ONLY)
   CONDUCTIVITY IN UNITS OF MILLIWATTS/(CM)(K)

 VISC,MILLIPOISE  0.52664  0.52876  0.53087  0.53296  0.53504  0.53710  0.50565  0.50782

  WITH EQUILIBRIUM REACTIONS

 Cp, KJ/(KG)(K)  114.1217 116.0449 117.9811 119.9292 121.8884 123.8574  93.4515  95.1414
 CONDUCTIVITY    124.6358 126.8050 128.9770 131.1501 133.3229 135.4934 101.1761 103.1890
 PRANDTL NUMBER    0.4822   0.4839   0.4856   0.4874   0.4892   0.4910   0.4670   0.4682

  WITH FROZEN REACTIONS

 Cp, KJ/(KG)(K)   18.8629  18.8807  18.8986  18.9165  18.9345  18.9525  18.6915  18.7085
 CONDUCTIVITY     14.2691  14.3343  14.3990  14.4630  14.5264  14.5890  13.6139  13.6826
 PRANDTL NUMBER    0.6962   0.6965   0.6968   0.6971   0.6974   0.6977   0.6942   0.6943

 MASS FRACTIONS

 *H               0.15219  0.15640  0.16070  0.16508  0.16955  0.17410  0.11166  0.11497
 *H2              0.84781  0.84360  0.83930  0.83492  0.83045  0.82590  0.88834  0.88503

  * THERMODYNAMIC PROPERTIES FITTED TO 20000.K

 NOTE. WEIGHT FRACTION OF FUEL IN TOTAL FUELS AND OF OXIDANT IN TOTAL OXIDANTS









               THERMODYNAMIC EQUILIBRIUM PROPERTIES AT ASSIGNED

                           TEMPERATURE AND PRESSURE

 CASE =                

             REACTANT                    WT FRACTION      ENERGY      TEMP
                                          (SEE NOTE)     KJ/KG-MOL      K  
 FUEL        H2                           1.0000000         0.000      0.000
 OXIDANT     H2                           1.0000000         0.000      0.000

 O/F=    1.00000  %FUEL= 50.000000  R,EQ.RATIO= 0.000000  PHI,EQ.RATIO=-1.000000

 THERMODYNAMIC PROPERTIES

 P, BAR           0.67000  0.67000  0.67000  0.67000  0.67000  0.67000  0.67000  0.67000
 T, K             3070.00  3080.00  3090.00  3100.00  3110.00  3120.00  3130.00  3140.00
 RHO, KG/CU M    4.7313-3 4.7014-3 4.6715-3 4.6415-3 4.6115-3 4.5815-3 4.5515-3 4.5214-3
 H, KJ/KG         72308.3  73285.5  74280.0  75292.1  76321.9  77369.6  78435.4  79519.4
 U, KJ/KG         58147.4  59034.4  59937.6  60857.1  61793.0  62745.5  63714.8  64701.0
 G, KJ/KG       -273061.1-274187.6-275317.4-276450.4-277586.7-278726.4-279869.4-281015.9
 S, KJ/(KG)(K)   112.4982 112.8159 113.1383 113.4653 113.7970 114.1333 114.4744 114.8202

 M, (1/n)           1.803    1.797    1.791    1.786    1.780    1.774    1.768    1.762
 (dLV/dLP)t      -1.05218 -1.05349 -1.05482 -1.05617 -1.05753 -1.05891 -1.06030 -1.06170
 (dLV/dLT)p        1.9400   1.9607   1.9815   2.0025   2.0236   2.0448   2.0662   2.0876
 Cp, KJ/(KG)(K)   96.8508  98.5792 100.3262 102.0913 103.8738 105.6732 107.4888 109.3199
 GAMMAs            1.1456   1.1454   1.1453   1.1451   1.1450   1.1449   1.1448   1.1447
 SON VEL,M/SEC     4027.7   4040.2   4052.9   4065.7   4078.7   4091.8   4105.1   4118.6

 TRANSPORT PROPERTIES (GASES ONLY)
   CONDUCTIVITY IN UNITS OF MILLIWATTS/(CM)(K)

 VISC,MILLIPOISE  0.50999  0.51216  0.51433  0.51650  0.51866  0.52082  0.52297  0.52512

  WITH EQUILIBRIUM REACTIONS

 Cp, KJ/(KG)(K)   96.8508  98.5792 100.3262 102.0913 103.8738 105.6732 107.4888 109.3199
 CONDUCTIVITY    105.2180 107.2618 109.3197 111.3904 113.4729 115.5660 117.6684 119.7790
 PRANDTL NUMBER    0.4694   0.4707   0.4720   0.4734   0.4748   0.4762   0.4777   0.4793

  WITH FROZEN REACTIONS

 Cp, KJ/(KG)(K)   18.7255  18.7426  18.7598  18.7770  18.7942  18.8115  18.8289  18.8463
 CONDUCTIVITY     13.7512  13.8196  13.8878  13.9557  14.0234  14.0906  14.1576  14.2241
 PRANDTL NUMBER    0.6945   0.6946   0.6948   0.6949   0.6951   0.6953   0.6955   0.6958

 MASS FRACTIONS

 *H               0.11836  0.12182  0.12536  0.12897  0.13266  0.13643  0.14027  0.14419
 *H2              0.88164  0.87818  0.87464  0.87103  0.86734  0.86357  0.85973  0.85581

  * THERMODYNAMIC PROPERTIES FITTED TO 20000.K

 NOTE. WEIGHT FRACTION OF FUEL IN TOTAL FUELS AND OF OXIDANT IN TOTAL OXIDANTS









               THERMODYNAMIC EQUILIBRIUM PROPERTIES AT ASSIGNED

                           TEMPERATURE AND PRESSURE

 CASE =                

             REACTANT                    WT FRACTION      ENERGY      TEMP
                                          (SEE NOTE)     KJ/KG-MOL      K  
 FUEL        H2                           1.0000000         0.000      0.000
 OXIDANT     H2                           1.0000000         0.000      0.000

 O/F=    1.00000  %FUEL= 50.000000  R,EQ.RATIO= 0.000000  PHI,EQ.RATIO=-1.000000

 THERMODYNAMIC PROPERTIES

 P, BAR           0.67000  0.67000  0.67000  0.67000  0.67000  0.74000  0.74000  0.74000
 T, K             3150.00  3160.00  3170.00  3180.00  3190.00  3050.00  3060.00  3070.00
 RHO, KG/CU M    4.4913-3 4.4613-3 4.4312-3 4.4011-3 4.3710-3 5.3172-3 5.2847-3 5.2522-3
 H, KJ/KG         80621.8  81742.8  82882.4  84040.8  85218.1  69185.2  70092.7  71016.5
 U, KJ/KG         65704.2  66724.6  67762.2  68817.3  69889.8  55268.2  56090.2  56927.3
 G, KJ/KG       -282165.8-283319.3-284476.4-285637.0-286801.4-269431.1-270542.8-271657.4
 S, KJ/(KG)(K)   115.1707 115.5260 115.8860 116.2509 116.6205 111.0218 111.3188 111.6202

 M, (1/n)           1.756    1.749    1.743    1.737    1.730    1.822    1.817    1.812
 (dLV/dLP)t      -1.06312 -1.06455 -1.06598 -1.06743 -1.06889 -1.04750 -1.04874 -1.05000
 (dLV/dLT)p        2.1091   2.1307   2.1524   2.1741   2.1959   1.8613   1.8810   1.9008
 Cp, KJ/(KG)(K)  111.1659 113.0258 114.8990 116.7844 118.6812  89.9421  91.5613  93.1997
 GAMMAs            1.1447   1.1446   1.1446   1.1446   1.1446   1.1471   1.1469   1.1467
 SON VEL,M/SEC     4132.3   4146.1   4160.1   4174.3   4188.7   3995.6   4007.4   4019.4

 TRANSPORT PROPERTIES (GASES ONLY)
   CONDUCTIVITY IN UNITS OF MILLIWATTS/(CM)(K)

 VISC,MILLIPOISE  0.52726  0.52938  0.53150  0.53360  0.53569  0.50426  0.50642  0.50858

  WITH EQUILIBRIUM REACTIONS

 Cp, KJ/(KG)(K)  111.1659 113.0258 114.8990 116.7844 118.6812  89.9421  91.5613  93.1997
 CONDUCTIVITY    121.8963 124.0191 126.1458 128.2751 130.4053  97.4389  99.3897 101.3574
 PRANDTL NUMBER    0.4808   0.4825   0.4841   0.4858   0.4875   0.4655   0.4665   0.4677

  WITH FROZEN REACTIONS

 Cp, KJ/(KG)(K)   18.8638  18.8813  18.8989  18.9165  18.9342  18.6799  18.6966  18.7134
 CONDUCTIVITY     14.2901  14.3557  14.4207  14.4851  14.5490  13.5697  13.6385  13.7071
 PRANDTL NUMBER    0.6960   0.6963   0.6966   0.6968   0.6972   0.6942   0.6942   0.6943

 MASS FRACTIONS

 *H               0.14820  0.15228  0.15644  0.16069  0.16502  0.10631  0.10947  0.11270
 *H2              0.85180  0.84772  0.84356  0.83931  0.83498  0.89369  0.89053  0.88730

  * THERMODYNAMIC PROPERTIES FITTED TO 20000.K

 NOTE. WEIGHT FRACTION OF FUEL IN TOTAL FUELS AND OF OXIDANT IN TOTAL OXIDANTS









               THERMODYNAMIC EQUILIBRIUM PROPERTIES AT ASSIGNED

                           TEMPERATURE AND PRESSURE

 CASE =                

             REACTANT                    WT FRACTION      ENERGY      TEMP
                                          (SEE NOTE)     KJ/KG-MOL      K  
 FUEL        H2                           1.0000000         0.000      0.000
 OXIDANT     H2                           1.0000000         0.000      0.000

 O/F=    1.00000  %FUEL= 50.000000  R,EQ.RATIO= 0.000000  PHI,EQ.RATIO=-1.000000

 THERMODYNAMIC PROPERTIES

 P, BAR           0.74000  0.74000  0.74000  0.74000  0.74000  0.74000  0.74000  0.74000
 T, K             3080.00  3090.00  3100.00  3110.00  3120.00  3130.00  3140.00  3150.00
 RHO, KG/CU M    5.2197-3 5.1871-3 5.1545-3 5.1219-3 5.0893-3 5.0566-3 5.0239-3 4.9912-3
 H, KJ/KG         71956.8  72913.7  73887.5  74878.3  75886.4  76911.7  77954.7  79015.3
 U, KJ/KG         57779.7  58647.7  59531.2  60430.6  61345.9  62277.4  63225.0  64189.1
 G, KJ/KG       -272775.2-273896.0-275019.9-276147.0-277277.3-278410.9-279547.8-280688.0
 S, KJ/(KG)(K)   111.9260 112.2362 112.5508 112.8699 113.1935 113.5216 113.8543 114.1915

 M, (1/n)           1.806    1.801    1.795    1.790    1.784    1.778    1.772    1.767
 (dLV/dLP)t      -1.05127 -1.05256 -1.05387 -1.05519 -1.05652 -1.05787 -1.05924 -1.06062
 (dLV/dLT)p        1.9208   1.9410   1.9614   1.9819   2.0025   2.0233   2.0442   2.0652
 Cp, KJ/(KG)(K)   94.8572  96.5332  98.2273  99.9390 101.6679 103.4134 105.1748 106.9517
 GAMMAs            1.1465   1.1463   1.1461   1.1460   1.1459   1.1458   1.1457   1.1456
 SON VEL,M/SEC     4031.6   4043.9   4056.4   4069.0   4081.8   4094.8   4107.9   4121.2

 TRANSPORT PROPERTIES (GASES ONLY)
   CONDUCTIVITY IN UNITS OF MILLIWATTS/(CM)(K)

 VISC,MILLIPOISE  0.51075  0.51292  0.51508  0.51725  0.51941  0.52157  0.52372  0.52587

  WITH EQUILIBRIUM REACTIONS

 Cp, KJ/(KG)(K)   94.8572  96.5332  98.2273  99.9390 101.6679 103.4134 105.1748 106.9517
 CONDUCTIVITY    103.3411 105.3398 107.3527 109.3787 111.4167 113.4658 115.5248 117.5924
 PRANDTL NUMBER    0.4688   0.4700   0.4713   0.4726   0.4740   0.4754   0.4768   0.4783

  WITH FROZEN REACTIONS

 Cp, KJ/(KG)(K)   18.7302  18.7470  18.7639  18.7809  18.7979  18.8150  18.8321  18.8492
 CONDUCTIVITY     13.7756  13.8440  13.9122  13.9801  14.0478  14.1152  14.1822  14.2488
 PRANDTL NUMBER    0.6944   0.6946   0.6947   0.6949   0.6950   0.6952   0.6954   0.6957

 MASS FRACTIONS

 *H               0.11600  0.11937  0.12282  0.12633  0.12993  0.13360  0.13734  0.14116
 *H2              0.88400  0.88063  0.87718  0.87367  0.87007  0.86640  0.86266  0.85884

  * THERMODYNAMIC PROPERTIES FITTED TO 20000.K

 NOTE. WEIGHT FRACTION OF FUEL IN TOTAL FUELS AND OF OXIDANT IN TOTAL OXIDANTS









               THERMODYNAMIC EQUILIBRIUM PROPERTIES AT ASSIGNED

                           TEMPERATURE AND PRESSURE

 CASE =                

             REACTANT                    WT FRACTION      ENERGY      TEMP
                                          (SEE NOTE)     KJ/KG-MOL      K  
 FUEL        H2                           1.0000000         0.000      0.000
 OXIDANT     H2                           1.0000000         0.000      0.000

 O/F=    1.00000  %FUEL= 50.000000  R,EQ.RATIO= 0.000000  PHI,EQ.RATIO=-1.000000

 THERMODYNAMIC PROPERTIES

 P, BAR           0.74000  0.74000  0.74000  0.74000  0.82500  0.82500  0.82500  0.82500
 T, K             3160.00  3170.00  3180.00  3190.00  3050.00  3060.00  3070.00  3080.00
 RHO, KG/CU M    4.9584-3 4.9257-3 4.8929-3 4.8602-3 5.9579-3 5.9224-3 5.8867-3 5.8510-3
 H, KJ/KG         80093.8  81190.2  82304.8  83437.6  67915.5  68786.0  69672.0  70573.7
 U, KJ/KG         65169.7  66166.9  67181.0  68211.9  54068.5  54855.7  55657.4  56473.7
 G, KJ/KG       -281831.6-282978.7-284129.2-285283.3-267921.7-269024.2-270129.6-271237.9
 S, KJ/(KG)(K)   114.5333 114.8798 115.2308 115.5865 110.1106 110.3955 110.6846 110.9778

 M, (1/n)           1.761    1.754    1.748    1.742    1.831    1.826    1.821    1.816
 (dLV/dLP)t      -1.06201 -1.06341 -1.06483 -1.06625 -1.04530 -1.04649 -1.04770 -1.04892
 (dLV/dLT)p        2.0863   2.1075   2.1287   2.1500   1.8213   1.8403   1.8594   1.8787
 Cp, KJ/(KG)(K)  108.7432 110.5487 112.3673 114.1984  86.2772  87.8212  89.3843  90.9661
 GAMMAs            1.1455   1.1455   1.1454   1.1454   1.1484   1.1482   1.1479   1.1477
 SON VEL,M/SEC     4134.7   4148.3   4162.1   4176.1   3987.8   3999.3   4011.0   4022.8

 TRANSPORT PROPERTIES (GASES ONLY)
   CONDUCTIVITY IN UNITS OF MILLIWATTS/(CM)(K)

 VISC,MILLIPOISE  0.52801  0.53014  0.53226  0.53437  0.50275  0.50490  0.50705  0.50921

  WITH EQUILIBRIUM REACTIONS

 Cp, KJ/(KG)(K)  108.7432 110.5487 112.3673 114.1984  86.2772  87.8212  89.3843  90.9661
 CONDUCTIVITY    119.6675 121.7487 123.8347 125.9242  93.4939  95.3766  97.2770  99.1942
 PRANDTL NUMBER    0.4798   0.4814   0.4830   0.4846   0.4639   0.4649   0.4659   0.4670

  WITH FROZEN REACTIONS

 Cp, KJ/(KG)(K)   18.8665  18.8837  18.9010  18.9184  18.6678  18.6842  18.7007  18.7172
 CONDUCTIVITY     14.3151  14.3808  14.4461  14.5108  13.5214  13.5900  13.6586  13.7272
 PRANDTL NUMBER    0.6959   0.6961   0.6964   0.6967   0.6941   0.6942   0.6942   0.6943

 MASS FRACTIONS

 *H               0.14506  0.14903  0.15309  0.15722  0.10074  0.10374  0.10680  0.10994
 *H2              0.85494  0.85097  0.84691  0.84278  0.89926  0.89626  0.89320  0.89006

  * THERMODYNAMIC PROPERTIES FITTED TO 20000.K

 NOTE. WEIGHT FRACTION OF FUEL IN TOTAL FUELS AND OF OXIDANT IN TOTAL OXIDANTS









               THERMODYNAMIC EQUILIBRIUM PROPERTIES AT ASSIGNED

                           TEMPERATURE AND PRESSURE

 CASE =                

             REACTANT                    WT FRACTION      ENERGY      TEMP
                                          (SEE NOTE)     KJ/KG-MOL      K  
 FUEL        H2                           1.0000000         0.000      0.000
 OXIDANT     H2                           1.0000000         0.000      0.000

 O/F=    1.00000  %FUEL= 50.000000  R,EQ.RATIO= 0.000000  PHI,EQ.RATIO=-1.000000

 THERMODYNAMIC PROPERTIES

 P, BAR           0.82500  0.82500  0.82500  0.82500  0.82500  0.82500  0.82500  0.82500
 T, K             3090.00  3100.00  3110.00  3120.00  3130.00  3140.00  3150.00  3160.00
 RHO, KG/CU M    5.8153-3 5.7796-3 5.7438-3 5.7080-3 5.6722-3 5.6363-3 5.6005-3 5.5646-3
 H, KJ/KG         71491.4  72425.1  73375.1  74341.6  75324.7  76324.5  77341.3  78375.2
 U, KJ/KG         57304.8  58150.8  59011.9  59888.3  60780.0  61687.4  62610.4  63549.3
 G, KJ/KG       -272349.1-273463.4-274580.7-275701.1-276824.6-277951.2-279081.1-280214.3
 S, KJ/(KG)(K)   111.2753 111.5769 111.8829 112.1932 112.5077 112.8267 113.1500 113.4777

 M, (1/n)           1.811    1.806    1.800    1.795    1.789    1.784    1.778    1.772
 (dLV/dLP)t      -1.05017 -1.05143 -1.05270 -1.05400 -1.05530 -1.05662 -1.05796 -1.05931
 (dLV/dLT)p        1.8982   1.9179   1.9377   1.9577   1.9778   1.9981   2.0185   2.0390
 Cp, KJ/(KG)(K)   92.5664  94.1847  95.8206  97.4739  99.1439 100.8301 102.5322 104.2494
 GAMMAs            1.1475   1.1473   1.1471   1.1470   1.1468   1.1467   1.1466   1.1465
 SON VEL,M/SEC     4034.8   4046.9   4059.2   4071.6   4084.2   4096.9   4109.8   4122.9

 TRANSPORT PROPERTIES (GASES ONLY)
   CONDUCTIVITY IN UNITS OF MILLIWATTS/(CM)(K)

 VISC,MILLIPOISE  0.51137  0.51353  0.51570  0.51786  0.52002  0.52217  0.52432  0.52647

  WITH EQUILIBRIUM REACTIONS

 Cp, KJ/(KG)(K)   92.5664  94.1847  95.8206  97.4739  99.1439 100.8301 102.5322 104.2494
 CONDUCTIVITY    101.1274 103.0759 105.0387 107.0149 109.0037 111.0039 113.0146 115.0345
 PRANDTL NUMBER    0.4681   0.4692   0.4704   0.4717   0.4730   0.4743   0.4757   0.4771

  WITH FROZEN REACTIONS

 Cp, KJ/(KG)(K)   18.7337  18.7504  18.7670  18.7837  18.8005  18.8173  18.8341  18.8510
 CONDUCTIVITY     13.7956  13.8640  13.9321  14.0001  14.0678  14.1352  14.2024  14.2692
 PRANDTL NUMBER    0.6944   0.6945   0.6947   0.6948   0.6950   0.6951   0.6953   0.6955

 MASS FRACTIONS

 *H               0.11314  0.11641  0.11975  0.12316  0.12664  0.13020  0.13383  0.13753
 *H2              0.88686  0.88359  0.88025  0.87684  0.87336  0.86980  0.86617  0.86247

  * THERMODYNAMIC PROPERTIES FITTED TO 20000.K

 NOTE. WEIGHT FRACTION OF FUEL IN TOTAL FUELS AND OF OXIDANT IN TOTAL OXIDANTS









               THERMODYNAMIC EQUILIBRIUM PROPERTIES AT ASSIGNED

                           TEMPERATURE AND PRESSURE

 CASE =                

             REACTANT                    WT FRACTION      ENERGY      TEMP
                                          (SEE NOTE)     KJ/KG-MOL      K  
 FUEL        H2                           1.0000000         0.000      0.000
 OXIDANT     H2                           1.0000000         0.000      0.000

 O/F=    1.00000  %FUEL= 50.000000  R,EQ.RATIO= 0.000000  PHI,EQ.RATIO=-1.000000

 THERMODYNAMIC PROPERTIES

 P, BAR           0.82500  0.82500  0.82500  0.91000  0.91000  0.91000  0.91000  0.91000
 T, K             3170.00  3180.00  3190.00  3050.00  3060.00  3070.00  3080.00  3090.00
 RHO, KG/CU M    5.5287-3 5.4927-3 5.4568-3 6.6004-3 6.5617-3 6.5230-3 6.4843-3 6.4455-3
 H, KJ/KG         79426.4  80494.9  81580.9  66826.4  67665.0  68518.5  69387.1  70270.9
 U, KJ/KG         64504.1  65475.0  66462.2  53039.4  53796.8  54567.9  55353.1  56152.4
 G, KJ/KG       -281350.7-282490.5-283633.6-266566.8-267661.2-268758.4-269858.5-270961.4
 S, KJ/(KG)(K)   113.8098 114.1463 114.4873 109.3092 109.5837 109.8622 110.1447 110.4311

 M, (1/n)           1.766    1.760    1.754    1.839    1.835    1.830    1.825    1.820
 (dLV/dLP)t      -1.06067 -1.06205 -1.06343 -1.04338 -1.04453 -1.04570 -1.04688 -1.04808
 (dLV/dLT)p        2.0596   2.0803   2.1011   1.7865   1.8048   1.8233   1.8420   1.8609
 Cp, KJ/(KG)(K)  105.9813 107.7270 109.4860  83.1235  84.6019  86.0990  87.6147  89.1485
 GAMMAs            1.1465   1.1464   1.1463   1.1497   1.1494   1.1491   1.1489   1.1486
 SON VEL,M/SEC     4136.1   4149.5   4163.1   3981.3   3992.5   4003.9   4015.4   4027.0

 TRANSPORT PROPERTIES (GASES ONLY)
   CONDUCTIVITY IN UNITS OF MILLIWATTS/(CM)(K)

 VISC,MILLIPOISE  0.52861  0.53075  0.53287  0.50140  0.50354  0.50568  0.50783  0.50998

  WITH EQUILIBRIUM REACTIONS

 Cp, KJ/(KG)(K)  105.9813 107.7270 109.4860  83.1235  84.6019  86.0990  87.6147  89.1485
 CONDUCTIVITY    117.0627 119.0979 121.1388  90.0645  91.8860  93.7256  95.5826  97.4564
 PRANDTL NUMBER    0.4786   0.4801   0.4816   0.4628   0.4636   0.4645   0.4655   0.4665

  WITH FROZEN REACTIONS

 Cp, KJ/(KG)(K)   18.8679  18.8849  18.9020  18.6574  18.6736  18.6898  18.7061  18.7224
 CONDUCTIVITY     14.3356  14.4016  14.4672  13.4779  13.5464  13.6149  13.6833  13.7517
 PRANDTL NUMBER    0.6957   0.6960   0.6962   0.6941   0.6941   0.6942   0.6942   0.6943

 MASS FRACTIONS

 *H               0.14131  0.14516  0.14909  0.09597  0.09882  0.10175  0.10473  0.10779
 *H2              0.85869  0.85484  0.85091  0.90403  0.90118  0.89825  0.89527  0.89221

  * THERMODYNAMIC PROPERTIES FITTED TO 20000.K

 NOTE. WEIGHT FRACTION OF FUEL IN TOTAL FUELS AND OF OXIDANT IN TOTAL OXIDANTS









               THERMODYNAMIC EQUILIBRIUM PROPERTIES AT ASSIGNED

                           TEMPERATURE AND PRESSURE

 CASE =                

             REACTANT                    WT FRACTION      ENERGY      TEMP
                                          (SEE NOTE)     KJ/KG-MOL      K  
 FUEL        H2                           1.0000000         0.000      0.000
 OXIDANT     H2                           1.0000000         0.000      0.000

 O/F=    1.00000  %FUEL= 50.000000  R,EQ.RATIO= 0.000000  PHI,EQ.RATIO=-1.000000

 THERMODYNAMIC PROPERTIES

 P, BAR           0.91000  0.91000  0.91000  0.91000  0.91000  0.91000  0.91000  0.91000
 T, K             3100.00  3110.00  3120.00  3130.00  3140.00  3150.00  3160.00  3170.00
 RHO, KG/CU M    6.4066-3 6.3678-3 6.3289-3 6.2899-3 6.2510-3 6.2120-3 6.1730-3 6.1339-3
 H, KJ/KG         71170.1  72084.9  73015.5  73962.1  74924.8  75903.7  76899.1  77911.1
 U, KJ/KG         56966.1  57794.2  58637.0  59494.5  60367.0  61254.6  62157.4  63075.6
 G, KJ/KG       -272067.1-273175.8-274287.5-275402.1-276519.8-277640.6-278764.6-279891.7
 S, KJ/(KG)(K)   110.7217 111.0163 111.3151 111.6180 111.9250 112.2363 112.5518 112.8715

 M, (1/n)           1.815    1.809    1.804    1.799    1.793    1.788    1.782    1.777
 (dLV/dLP)t      -1.04930 -1.05054 -1.05179 -1.05306 -1.05434 -1.05563 -1.05694 -1.05827
 (dLV/dLT)p        1.8800   1.8992   1.9186   1.9381   1.9578   1.9776   1.9976   2.0177
 Cp, KJ/(KG)(K)   90.7002  92.2695  93.8560  95.4594  97.0791  98.7148 100.3660 102.0321
 GAMMAs            1.1484   1.1482   1.1480   1.1479   1.1477   1.1476   1.1475   1.1474
 SON VEL,M/SEC     4038.8   4050.8   4062.9   4075.2   4087.6   4100.2   4112.9   4125.8

 TRANSPORT PROPERTIES (GASES ONLY)
   CONDUCTIVITY IN UNITS OF MILLIWATTS/(CM)(K)

 VISC,MILLIPOISE  0.51214  0.51429  0.51645  0.51861  0.52076  0.52292  0.52507  0.52721

  WITH EQUILIBRIUM REACTIONS

 Cp, KJ/(KG)(K)   90.7002  92.2695  93.8560  95.4594  97.0791  98.7148 100.3660 102.0321
 CONDUCTIVITY     99.3462 101.2513 103.1708 105.1038 107.0496 109.0071 110.9753 112.9533
 PRANDTL NUMBER    0.4676   0.4687   0.4698   0.4710   0.4723   0.4735   0.4749   0.4762

  WITH FROZEN REACTIONS

 Cp, KJ/(KG)(K)   18.7387  18.7551  18.7715  18.7880  18.8045  18.8211  18.8377  18.8544
 CONDUCTIVITY     13.8201  13.8883  13.9564  14.0243  14.0920  14.1595  14.2267  14.2936
 PRANDTL NUMBER    0.6944   0.6945   0.6946   0.6948   0.6949   0.6951   0.6952   0.6954

 MASS FRACTIONS

 *H               0.11091  0.11409  0.11735  0.12067  0.12407  0.12753  0.13107  0.13467
 *H2              0.88909  0.88591  0.88265  0.87933  0.87593  0.87247  0.86893  0.86533

  * THERMODYNAMIC PROPERTIES FITTED TO 20000.K

 NOTE. WEIGHT FRACTION OF FUEL IN TOTAL FUELS AND OF OXIDANT IN TOTAL OXIDANTS









               THERMODYNAMIC EQUILIBRIUM PROPERTIES AT ASSIGNED

                           TEMPERATURE AND PRESSURE

 CASE =                

             REACTANT                    WT FRACTION      ENERGY      TEMP
                                          (SEE NOTE)     KJ/KG-MOL      K  
 FUEL        H2                           1.0000000         0.000      0.000
 OXIDANT     H2                           1.0000000         0.000      0.000

 O/F=    1.00000  %FUEL= 50.000000  R,EQ.RATIO= 0.000000  PHI,EQ.RATIO=-1.000000

 THERMODYNAMIC PROPERTIES

 P, BAR           0.91000  0.91000   1.0000   1.0000   1.0000   1.0000   1.0000   1.0000
 T, K             3180.00  3190.00  3050.00  3060.00  3070.00  3080.00  3090.00  3100.00
 RHO, KG/CU M    6.0949-3 6.0558-3 7.2823-3 7.2404-3 7.1985-3 7.1565-3 7.1145-3 7.0724-3
 H, KJ/KG         78939.8  79985.4  65826.8  66636.1  67459.7  68297.6  69150.3  70017.7
 U, KJ/KG         64009.3  64958.5  52095.0  52824.8  53567.8  54324.3  55094.4  55878.2
 G, KJ/KG       -281022.0-282155.6-265269.1-266356.0-267445.6-268537.8-269632.8-270730.6
 S, KJ/(KG)(K)   113.1955 113.5238 108.5561 108.8210 109.0896 109.3622 109.6385 109.9188

 M, (1/n)           1.771    1.765    1.847    1.842    1.837    1.833    1.828    1.823
 (dLV/dLP)t      -1.05961 -1.06096 -1.04160 -1.04271 -1.04384 -1.04498 -1.04615 -1.04733
 (dLV/dLT)p        2.0378   2.0581   1.7543   1.7719   1.7898   1.8079   1.8262   1.8447
 Cp, KJ/(KG)(K)  103.7126 105.4070  80.2211  81.6385  83.0741  84.5279  85.9997  87.4891
 GAMMAs            1.1473   1.1472   1.1509   1.1506   1.1503   1.1500   1.1498   1.1495
 SON VEL,M/SEC     4138.8   4152.0   3975.4   3986.4   3997.5   4008.7   4020.1   4031.6

 TRANSPORT PROPERTIES (GASES ONLY)
   CONDUCTIVITY IN UNITS OF MILLIWATTS/(CM)(K)

 VISC,MILLIPOISE  0.52935  0.53149  0.50012  0.50224  0.50437  0.50651  0.50865  0.51080

  WITH EQUILIBRIUM REACTIONS

 Cp, KJ/(KG)(K)  103.7126 105.4070  80.2211  81.6385  83.0741  84.5279  85.9997  87.4891
 CONDUCTIVITY    114.9400 116.9343  86.8799  88.6429  90.4243  92.2236  94.0402  95.8733
 PRANDTL NUMBER    0.4776   0.4791   0.4618   0.4626   0.4634   0.4642   0.4652   0.4661

  WITH FROZEN REACTIONS

 Cp, KJ/(KG)(K)   18.8711  18.8878  18.6479  18.6638  18.6798  18.6958  18.7119  18.7280
 CONDUCTIVITY     14.3601  14.4263  13.4363  13.5045  13.5728  13.6411  13.7095  13.7777
 PRANDTL NUMBER    0.6956   0.6959   0.6941   0.6941   0.6942   0.6942   0.6943   0.6943

 MASS FRACTIONS

 *H               0.13835  0.14210  0.09158  0.09431  0.09711  0.09996  0.10288  0.10586
 *H2              0.86165  0.85790  0.90842  0.90569  0.90289  0.90004  0.89712  0.89414

  * THERMODYNAMIC PROPERTIES FITTED TO 20000.K

 NOTE. WEIGHT FRACTION OF FUEL IN TOTAL FUELS AND OF OXIDANT IN TOTAL OXIDANTS









               THERMODYNAMIC EQUILIBRIUM PROPERTIES AT ASSIGNED

                           TEMPERATURE AND PRESSURE

 CASE =                

             REACTANT                    WT FRACTION      ENERGY      TEMP
                                          (SEE NOTE)     KJ/KG-MOL      K  
 FUEL        H2                           1.0000000         0.000      0.000
 OXIDANT     H2                           1.0000000         0.000      0.000

 O/F=    1.00000  %FUEL= 50.000000  R,EQ.RATIO= 0.000000  PHI,EQ.RATIO=-1.000000

 THERMODYNAMIC PROPERTIES

 P, BAR            1.0000   1.0000   1.0000   1.0000   1.0000   1.0000   1.0000   1.0000
 T, K             3110.00  3120.00  3130.00  3140.00  3150.00  3160.00  3170.00  3180.00
 RHO, KG/CU M    7.0303-3 6.9882-3 6.9460-3 6.9038-3 6.8616-3 6.8193-3 6.7770-3 6.7347-3
 H, KJ/KG         70900.1  71797.7  72710.6  73638.9  74583.0  75542.8  76518.6  77510.5
 U, KJ/KG         56676.0  57487.8  58313.8  59154.1  60009.0  60878.5  61762.8  62662.0
 G, KJ/KG       -271831.2-272934.7-274041.0-275150.3-276262.6-277377.9-278496.3-279617.8
 S, KJ/(KG)(K)   110.2030 110.4911 110.7833 111.0794 111.3796 111.6838 111.9921 112.3045

 M, (1/n)           1.818    1.813    1.808    1.802    1.797    1.792    1.786    1.781
 (dLV/dLP)t      -1.04852 -1.04973 -1.05096 -1.05220 -1.05346 -1.05474 -1.05602 -1.05732
 (dLV/dLT)p        1.8633   1.8821   1.9011   1.9202   1.9395   1.9589   1.9784   1.9981
 Cp, KJ/(KG)(K)   88.9959  90.5197  92.0604  93.6175  95.1905  96.7792  98.3831 100.0016
 GAMMAs            1.1493   1.1491   1.1489   1.1487   1.1486   1.1484   1.1483   1.1482
 SON VEL,M/SEC     4043.2   4055.1   4067.0   4079.1   4091.4   4103.8   4116.4   4129.1

 TRANSPORT PROPERTIES (GASES ONLY)
   CONDUCTIVITY IN UNITS OF MILLIWATTS/(CM)(K)

 VISC,MILLIPOISE  0.51294  0.51510  0.51725  0.51940  0.52155  0.52370  0.52585  0.52800

  WITH EQUILIBRIUM REACTIONS

 Cp, KJ/(KG)(K)   88.9959  90.5197  92.0604  93.6175  95.1905  96.7792  98.3831 100.0016
 CONDUCTIVITY     97.7224  99.5867 101.4655 103.3579 105.2631 107.1803 109.1084 111.0466
 PRANDTL NUMBER    0.4671   0.4682   0.4693   0.4705   0.4716   0.4729   0.4742   0.4755

  WITH FROZEN REACTIONS

 Cp, KJ/(KG)(K)   18.7441  18.7603  18.7766  18.7928  18.8092  18.8255  18.8419  18.8584
 CONDUCTIVITY     13.8460  13.9141  13.9821  14.0500  14.1176  14.1851  14.2523  14.3193
 PRANDTL NUMBER    0.6944   0.6945   0.6946   0.6947   0.6949   0.6950   0.6952   0.6954

 MASS FRACTIONS

 *H               0.10890  0.11201  0.11519  0.11844  0.12175  0.12513  0.12858  0.13209
 *H2              0.89110  0.88799  0.88481  0.88156  0.87825  0.87487  0.87142  0.86791

  * THERMODYNAMIC PROPERTIES FITTED TO 20000.K

 NOTE. WEIGHT FRACTION OF FUEL IN TOTAL FUELS AND OF OXIDANT IN TOTAL OXIDANTS









               THERMODYNAMIC EQUILIBRIUM PROPERTIES AT ASSIGNED

                           TEMPERATURE AND PRESSURE

 CASE =                

             REACTANT                    WT FRACTION      ENERGY      TEMP
                                          (SEE NOTE)     KJ/KG-MOL      K  
 FUEL        H2                           1.0000000         0.000      0.000
 OXIDANT     H2                           1.0000000         0.000      0.000

 O/F=    1.00000  %FUEL= 50.000000  R,EQ.RATIO= 0.000000  PHI,EQ.RATIO=-1.000000

 THERMODYNAMIC PROPERTIES

 P, BAR            1.0000   1.1000   1.1000   1.1000   1.1000   1.1000   1.1000   1.1000
 T, K             3190.00  3050.00  3060.00  3070.00  3080.00  3090.00  3100.00  3110.00
 RHO, KG/CU M    6.6924-3 8.0417-3 7.9963-3 7.9508-3 7.9053-3 7.8597-3 7.8141-3 7.7684-3
 H, KJ/KG         78518.7  64862.3  65643.2  66437.7  67246.2  68068.6  68905.2  69756.2
 U, KJ/KG         63576.3  51183.6  51886.8  52602.6  53331.4  54073.2  54828.1  55596.4
 G, KJ/KG       -280742.4-263962.9-265042.3-266124.2-267208.8-268296.0-269385.9-270478.6
 S, KJ/(KG)(K)   112.6210 107.8115 108.0671 108.3264 108.5893 108.8559 109.1262 109.4003

 M, (1/n)           1.775    1.854    1.849    1.845    1.840    1.836    1.831    1.826
 (dLV/dLP)t      -1.05864 -1.03986 -1.04093 -1.04202 -1.04313 -1.04425 -1.04539 -1.04655
 (dLV/dLT)p        2.0178   1.7228   1.7399   1.7571   1.7746   1.7923   1.8102   1.8282
 Cp, KJ/(KG)(K)  101.6343  77.4137  78.7713  80.1468  81.5400  82.9509  84.3791  85.8244
 GAMMAs            1.1481   1.1522   1.1518   1.1515   1.1512   1.1509   1.1507   1.1504
 SON VEL,M/SEC     4142.0   3969.9   3980.6   3991.4   4002.4   4013.5   4024.7   4036.1

 TRANSPORT PROPERTIES (GASES ONLY)
   CONDUCTIVITY IN UNITS OF MILLIWATTS/(CM)(K)

 VISC,MILLIPOISE  0.53014  0.49884  0.50095  0.50307  0.50519  0.50732  0.50945  0.51159

  WITH EQUILIBRIUM REACTIONS

 Cp, KJ/(KG)(K)  101.6343  77.4137  78.7713  80.1468  81.5400  82.9509  84.3791  85.8244
 CONDUCTIVITY    112.9939  83.7731  85.4775  87.2006  88.9419  90.7008  92.4769  94.2693
 PRANDTL NUMBER    0.4768   0.4610   0.4616   0.4624   0.4631   0.4640   0.4648   0.4658

  WITH FROZEN REACTIONS

 Cp, KJ/(KG)(K)   18.8748  18.6387  18.6544  18.6702  18.6860  18.7018  18.7177  18.7336
 CONDUCTIVITY     14.3859  13.3946  13.4625  13.5305  13.5986  13.6668  13.7349  13.8030
 PRANDTL NUMBER    0.6956   0.6941   0.6941   0.6942   0.6942   0.6942   0.6943   0.6943

 MASS FRACTIONS

 *H               0.13568  0.08736  0.08996  0.09263  0.09535  0.09814  0.10098  0.10389
 *H2              0.86432  0.91264  0.91004  0.90737  0.90465  0.90186  0.89902  0.89611

  * THERMODYNAMIC PROPERTIES FITTED TO 20000.K

 NOTE. WEIGHT FRACTION OF FUEL IN TOTAL FUELS AND OF OXIDANT IN TOTAL OXIDANTS









               THERMODYNAMIC EQUILIBRIUM PROPERTIES AT ASSIGNED

                           TEMPERATURE AND PRESSURE

 CASE =                

             REACTANT                    WT FRACTION      ENERGY      TEMP
                                          (SEE NOTE)     KJ/KG-MOL      K  
 FUEL        H2                           1.0000000         0.000      0.000
 OXIDANT     H2                           1.0000000         0.000      0.000

 O/F=    1.00000  %FUEL= 50.000000  R,EQ.RATIO= 0.000000  PHI,EQ.RATIO=-1.000000

 THERMODYNAMIC PROPERTIES

 P, BAR            1.1000   1.1000   1.1000   1.1000   1.1000   1.1000   1.1000   1.1000
 T, K             3120.00  3130.00  3140.00  3150.00  3160.00  3170.00  3180.00  3190.00
 RHO, KG/CU M    7.7228-3 7.6770-3 7.6313-3 7.5855-3 7.5397-3 7.4938-3 7.4480-3 7.4021-3
 H, KJ/KG         70621.8  71502.0  72397.1  73307.3  74232.6  75173.3  76129.5  77101.3
 U, KJ/KG         56378.2  57173.6  57982.8  58805.9  59643.1  60494.6  61360.4  62240.6
 G, KJ/KG       -271574.0-272672.2-273773.2-274877.1-275983.9-277093.6-278206.4-279322.2
 S, KJ/(KG)(K)   109.6781 109.9598 110.2453 110.5347 110.8280 111.1252 111.4264 111.7315

 M, (1/n)           1.821    1.816    1.811    1.806    1.801    1.796    1.790    1.785
 (dLV/dLP)t      -1.04772 -1.04891 -1.05011 -1.05133 -1.05257 -1.05382 -1.05508 -1.05636
 (dLV/dLT)p        1.8464   1.8648   1.8834   1.9021   1.9209   1.9399   1.9590   1.9783
 Cp, KJ/(KG)(K)   87.2867  88.7655  90.2607  91.7719  93.2987  94.8407  96.3976  97.9689
 GAMMAs            1.1502   1.1500   1.1498   1.1496   1.1495   1.1493   1.1492   1.1491
 SON VEL,M/SEC     4047.6   4059.3   4071.1   4083.0   4095.1   4107.4   4119.8   4132.3

 TRANSPORT PROPERTIES (GASES ONLY)
   CONDUCTIVITY IN UNITS OF MILLIWATTS/(CM)(K)

 VISC,MILLIPOISE  0.51373  0.51588  0.51802  0.52017  0.52232  0.52446  0.52661  0.52875

  WITH EQUILIBRIUM REACTIONS

 Cp, KJ/(KG)(K)   87.2867  88.7655  90.2607  91.7719  93.2987  94.8407  96.3976  97.9689
 CONDUCTIVITY     96.0776  97.9011  99.7390 101.5905 103.4550 105.3316 107.2195 109.1176
 PRANDTL NUMBER    0.4667   0.4677   0.4688   0.4699   0.4710   0.4722   0.4735   0.4747

  WITH FROZEN REACTIONS

 Cp, KJ/(KG)(K)   18.7495  18.7655  18.7816  18.7976  18.8137  18.8299  18.8461  18.8623
 CONDUCTIVITY     13.8711  13.9391  14.0071  14.0749  14.1425  14.2100  14.2772  14.3441
 PRANDTL NUMBER    0.6944   0.6945   0.6946   0.6947   0.6948   0.6950   0.6951   0.6953

 MASS FRACTIONS

 *H               0.10686  0.10990  0.11300  0.11616  0.11939  0.12268  0.12605  0.12948
 *H2              0.89314  0.89010  0.88700  0.88384  0.88061  0.87732  0.87395  0.87052

  * THERMODYNAMIC PROPERTIES FITTED TO 20000.K

 NOTE. WEIGHT FRACTION OF FUEL IN TOTAL FUELS AND OF OXIDANT IN TOTAL OXIDANTS









               THERMODYNAMIC EQUILIBRIUM PROPERTIES AT ASSIGNED

                           TEMPERATURE AND PRESSURE

 CASE =                

             REACTANT                    WT FRACTION      ENERGY      TEMP
                                          (SEE NOTE)     KJ/KG-MOL      K  
 FUEL        H2                           1.0000000         0.000      0.000
 OXIDANT     H2                           1.0000000         0.000      0.000

 O/F=    1.00000  %FUEL= 50.000000  R,EQ.RATIO= 0.000000  PHI,EQ.RATIO=-1.000000

 THERMODYNAMIC PROPERTIES

 P, BAR            1.2000   1.2000   1.2000   1.2000   1.2000   1.2000   1.2000   1.2000
 T, K             3050.00  3060.00  3070.00  3080.00  3090.00  3100.00  3110.00  3120.00
 RHO, KG/CU M    8.8027-3 8.7537-3 8.7048-3 8.6557-3 8.6067-3 8.5576-3 8.5084-3 8.4592-3
 H, KJ/KG         64020.1  64776.1  65545.3  66327.9  67123.9  67933.5  68757.0  69594.5
 U, KJ/KG         50387.8  51067.7  51759.8  52464.2  53181.2  53910.9  54653.3  55408.8
 G, KJ/KG       -262774.8-263847.4-264922.6-266000.3-267080.6-268163.5-269249.0-270337.1
 S, KJ/(KG)(K)   107.1458 107.3933 107.6443 107.8988 108.1568 108.4184 108.6836 108.9525

 M, (1/n)           1.860    1.856    1.852    1.847    1.843    1.838    1.833    1.829
 (dLV/dLP)t      -1.03833 -1.03937 -1.04042 -1.04149 -1.04258 -1.04368 -1.04481 -1.04594
 (dLV/dLT)p        1.6950   1.7116   1.7283   1.7452   1.7624   1.7797   1.7972   1.8149
 Cp, KJ/(KG)(K)   74.9572  76.2620  77.5843  78.9240  80.2809  81.6549  83.0457  84.4532
 GAMMAs            1.1534   1.1530   1.1527   1.1524   1.1521   1.1518   1.1515   1.1513
 SON VEL,M/SEC     3965.2   3975.7   3986.3   3997.0   4007.8   4018.8   4029.9   4041.2

 TRANSPORT PROPERTIES (GASES ONLY)
   CONDUCTIVITY IN UNITS OF MILLIWATTS/(CM)(K)

 VISC,MILLIPOISE  0.49769  0.49979  0.50189  0.50400  0.50611  0.50823  0.51036  0.51249

  WITH EQUILIBRIUM REACTIONS

 Cp, KJ/(KG)(K)   74.9572  76.2620  77.5843  78.9240  80.2809  81.6549  83.0457  84.4532
 CONDUCTIVITY     81.0333  82.6849  84.3553  86.0441  87.7508  89.4748  91.2157  92.9728
 PRANDTL NUMBER    0.4604   0.4610   0.4616   0.4623   0.4630   0.4638   0.4646   0.4655

  WITH FROZEN REACTIONS

 Cp, KJ/(KG)(K)   18.6307  18.6462  18.6618  18.6773  18.6930  18.7086  18.7244  18.7401
 CONDUCTIVITY     13.3569  13.4244  13.4922  13.5600  13.6279  13.6959  13.7639  13.8318
 PRANDTL NUMBER    0.6942   0.6942   0.6942   0.6942   0.6942   0.6943   0.6943   0.6944

 MASS FRACTIONS

 *H               0.08366  0.08616  0.08871  0.09133  0.09400  0.09672  0.09951  0.10236
 *H2              0.91634  0.91384  0.91129  0.90867  0.90600  0.90328  0.90049  0.89764

  * THERMODYNAMIC PROPERTIES FITTED TO 20000.K

 NOTE. WEIGHT FRACTION OF FUEL IN TOTAL FUELS AND OF OXIDANT IN TOTAL OXIDANTS









               THERMODYNAMIC EQUILIBRIUM PROPERTIES AT ASSIGNED

                           TEMPERATURE AND PRESSURE

 CASE =                

             REACTANT                    WT FRACTION      ENERGY      TEMP
                                          (SEE NOTE)     KJ/KG-MOL      K  
 FUEL        H2                           1.0000000         0.000      0.000
 OXIDANT     H2                           1.0000000         0.000      0.000

 O/F=    1.00000  %FUEL= 50.000000  R,EQ.RATIO= 0.000000  PHI,EQ.RATIO=-1.000000

 THERMODYNAMIC PROPERTIES

 P, BAR            1.2000   1.2000   1.2000   1.2000   1.2000   1.2000   1.2000   1.3200
 T, K             3130.00  3140.00  3150.00  3160.00  3170.00  3180.00  3190.00  3050.00
 RHO, KG/CU M    8.4100-3 8.3607-3 8.3114-3 8.2621-3 8.2128-3 8.1634-3 8.1140-3 9.7176-3
 H, KJ/KG         70446.2  71312.1  72192.6  73087.6  73997.5  74922.3  75862.2  63137.8
 U, KJ/KG         56177.4  56959.3  57754.6  58563.5  59386.1  60222.5  61072.9  49554.2
 G, KJ/KG       -271428.0-272521.7-273618.1-274717.3-275819.4-276924.4-278032.3-261477.8
 S, KJ/(KG)(K)   109.2250 109.5012 109.7811 110.0648 110.3523 110.6436 110.9387 106.4313

 M, (1/n)           1.824    1.819    1.814    1.809    1.804    1.799    1.793    1.867
 (dLV/dLP)t      -1.04709 -1.04826 -1.04945 -1.05065 -1.05186 -1.05309 -1.05433 -1.03671
 (dLV/dLT)p        1.8327   1.8507   1.8689   1.8873   1.9057   1.9244   1.9431   1.6657
 Cp, KJ/(KG)(K)   85.8771  87.3171  88.7731  90.2446  91.7313  93.2330  94.7491  72.3788
 GAMMAs            1.1510   1.1508   1.1506   1.1504   1.1503   1.1501   1.1500   1.1547
 SON VEL,M/SEC     4052.6   4064.1   4075.8   4087.7   4099.6   4111.7   4124.0   3960.5

 TRANSPORT PROPERTIES (GASES ONLY)
   CONDUCTIVITY IN UNITS OF MILLIWATTS/(CM)(K)

 VISC,MILLIPOISE  0.51463  0.51677  0.51891  0.52105  0.52319  0.52534  0.52748  0.49645

  WITH EQUILIBRIUM REACTIONS

 Cp, KJ/(KG)(K)   85.8771  87.3171  88.7731  90.2446  91.7313  93.2330  94.7491  72.3788
 CONDUCTIVITY     94.7457  96.5335  98.3357 100.1516 101.9803 103.8212 105.6735  78.1359
 PRANDTL NUMBER    0.4665   0.4674   0.4684   0.4695   0.4706   0.4718   0.4730   0.4599

  WITH FROZEN REACTIONS

 Cp, KJ/(KG)(K)   18.7559  18.7717  18.7875  18.8034  18.8194  18.8353  18.8513  18.6223
 CONDUCTIVITY     13.8998  13.9677  14.0355  14.1032  14.1708  14.2382  14.3054  13.3160
 PRANDTL NUMBER    0.6944   0.6945   0.6946   0.6947   0.6948   0.6950   0.6951   0.6943

 MASS FRACTIONS

 *H               0.10527  0.10824  0.11128  0.11437  0.11754  0.12076  0.12405  0.07980
 *H2              0.89473  0.89176  0.88872  0.88563  0.88246  0.87924  0.87595  0.92020

  * THERMODYNAMIC PROPERTIES FITTED TO 20000.K

 NOTE. WEIGHT FRACTION OF FUEL IN TOTAL FUELS AND OF OXIDANT IN TOTAL OXIDANTS









               THERMODYNAMIC EQUILIBRIUM PROPERTIES AT ASSIGNED

                           TEMPERATURE AND PRESSURE

 CASE =                

             REACTANT                    WT FRACTION      ENERGY      TEMP
                                          (SEE NOTE)     KJ/KG-MOL      K  
 FUEL        H2                           1.0000000         0.000      0.000
 OXIDANT     H2                           1.0000000         0.000      0.000

 O/F=    1.00000  %FUEL= 50.000000  R,EQ.RATIO= 0.000000  PHI,EQ.RATIO=-1.000000

 THERMODYNAMIC PROPERTIES

 P, BAR            1.3200   1.3200   1.3200   1.3200   1.3200   1.3200   1.3200   1.3200
 T, K             3060.00  3070.00  3080.00  3090.00  3100.00  3110.00  3120.00  3130.00
 RHO, KG/CU M    9.6645-3 9.6114-3 9.5582-3 9.5050-3 9.4518-3 9.3985-3 9.3451-3 9.2918-3
 H, KJ/KG         63867.8  64610.4  65365.7  66134.0  66915.3  67709.9  68517.9  69339.4
 U, KJ/KG         50209.6  50876.7  51555.6  52246.6  52949.7  53665.0  54392.9  55133.3
 G, KJ/KG       -262543.3-263611.2-264681.5-265754.4-266829.7-267907.6-268988.0-270071.1
 S, KJ/(KG)(K)   106.6703 106.9126 107.1582 107.4072 107.6597 107.9156 108.1750 108.4379

 M, (1/n)           1.863    1.859    1.854    1.850    1.846    1.841    1.837    1.832
 (dLV/dLP)t      -1.03771 -1.03873 -1.03976 -1.04081 -1.04188 -1.04296 -1.04406 -1.04517
 (dLV/dLT)p        1.6816   1.6978   1.7141   1.7307   1.7474   1.7643   1.7814   1.7987
 Cp, KJ/(KG)(K)   73.6277  74.8937  76.1766  77.4763  78.7927  80.1256  81.4748  82.8402
 GAMMAs            1.1544   1.1540   1.1536   1.1533   1.1530   1.1527   1.1524   1.1522
 SON VEL,M/SEC     3970.7   3981.0   3991.5   4002.1   4012.8   4023.6   4034.6   4045.7

 TRANSPORT PROPERTIES (GASES ONLY)
   CONDUCTIVITY IN UNITS OF MILLIWATTS/(CM)(K)

 VISC,MILLIPOISE  0.49853  0.50061  0.50271  0.50481  0.50691  0.50903  0.51115  0.51327

  WITH EQUILIBRIUM REACTIONS

 Cp, KJ/(KG)(K)   73.6277  74.8937  76.1766  77.4763  78.7927  80.1256  81.4748  82.8402
 CONDUCTIVITY     79.7306  81.3440  82.9760  84.6259  86.2935  87.9782  89.6795  91.3970
 PRANDTL NUMBER    0.4604   0.4609   0.4615   0.4622   0.4629   0.4636   0.4644   0.4652

  WITH FROZEN REACTIONS

 Cp, KJ/(KG)(K)   18.6376  18.6529  18.6683  18.6837  18.6992  18.7147  18.7302  18.7458
 CONDUCTIVITY     13.3832  13.4505  13.5180  13.5856  13.6533  13.7211  13.7889  13.8567
 PRANDTL NUMBER    0.6943   0.6942   0.6942   0.6942   0.6943   0.6943   0.6943   0.6944

 MASS FRACTIONS

 *H               0.08218  0.08462  0.08711  0.08966  0.09226  0.09492  0.09764  0.10042
 *H2              0.91782  0.91538  0.91289  0.91034  0.90774  0.90508  0.90236  0.89958

  * THERMODYNAMIC PROPERTIES FITTED TO 20000.K

 NOTE. WEIGHT FRACTION OF FUEL IN TOTAL FUELS AND OF OXIDANT IN TOTAL OXIDANTS









               THERMODYNAMIC EQUILIBRIUM PROPERTIES AT ASSIGNED

                           TEMPERATURE AND PRESSURE

 CASE =                

             REACTANT                    WT FRACTION      ENERGY      TEMP
                                          (SEE NOTE)     KJ/KG-MOL      K  
 FUEL        H2                           1.0000000         0.000      0.000
 OXIDANT     H2                           1.0000000         0.000      0.000

 O/F=    1.00000  %FUEL= 50.000000  R,EQ.RATIO= 0.000000  PHI,EQ.RATIO=-1.000000

 THERMODYNAMIC PROPERTIES

 P, BAR            1.3200   1.3200   1.3200   1.3200   1.3200   1.3200   1.4800   1.4800
 T, K             3140.00  3150.00  3160.00  3170.00  3180.00  3190.00  3050.00  3060.00
 RHO, KG/CU M    9.2383-3 9.1849-3 9.1314-3 9.0779-3 9.0243-3 8.9708-3 1.0940-2 1.0882-2
 H, KJ/KG         70174.7  71023.9  71887.1  72764.6  73656.3  74562.6  62131.7  62832.0
 U, KJ/KG         55886.4  56652.5  57431.5  58223.7  59029.2  59848.2  48603.7  49231.1
 G, KJ/KG       -271156.8-272245.2-273336.3-274430.1-275526.8-276626.3-259926.9-260984.0
 S, KJ/(KG)(K)   108.7043 108.9743 109.2479 109.5251 109.8060 110.0906 105.5930 105.8222

 M, (1/n)           1.827    1.822    1.818    1.813    1.808    1.803    1.875    1.871
 (dLV/dLP)t      -1.04630 -1.04744 -1.04860 -1.04978 -1.05097 -1.05218 -1.03485 -1.03581
 (dLV/dLT)p        1.8161   1.8337   1.8515   1.8694   1.8875   1.9057   1.6319   1.6472
 Cp, KJ/(KG)(K)   84.2214  85.6184  87.0308  88.4583  89.9007  91.3576  69.4328  70.6174
 GAMMAs            1.1519   1.1517   1.1515   1.1513   1.1512   1.1510   1.1564   1.1560
 SON VEL,M/SEC     4057.0   4068.4   4079.9   4091.6   4103.4   4115.4   3955.3   3965.2

 TRANSPORT PROPERTIES (GASES ONLY)
   CONDUCTIVITY IN UNITS OF MILLIWATTS/(CM)(K)

 VISC,MILLIPOISE  0.51540  0.51753  0.51967  0.52180  0.52394  0.52608  0.49500  0.49705

  WITH EQUILIBRIUM REACTIONS

 Cp, KJ/(KG)(K)   84.2214  85.6184  87.0308  88.4583  89.9007  91.3576  69.4328  70.6174
 CONDUCTIVITY     93.1299  94.8778  96.6400  98.4159 100.2047 102.0058  74.7982  76.3258
 PRANDTL NUMBER    0.4661   0.4670   0.4680   0.4690   0.4701   0.4712   0.4595   0.4599

  WITH FROZEN REACTIONS

 Cp, KJ/(KG)(K)   18.7613  18.7770  18.7926  18.8083  18.8241  18.8398  18.6127  18.6278
 CONDUCTIVITY     13.9245  13.9923  14.0600  14.1276  14.1951  14.2625  13.2677  13.3343
 PRANDTL NUMBER    0.6944   0.6945   0.6946   0.6947   0.6948   0.6949   0.6944   0.6944

 MASS FRACTIONS

 *H               0.10326  0.10616  0.10912  0.11214  0.11522  0.11836  0.07538  0.07764
 *H2              0.89674  0.89384  0.89088  0.88786  0.88478  0.88164  0.92462  0.92236

  * THERMODYNAMIC PROPERTIES FITTED TO 20000.K

 NOTE. WEIGHT FRACTION OF FUEL IN TOTAL FUELS AND OF OXIDANT IN TOTAL OXIDANTS









               THERMODYNAMIC EQUILIBRIUM PROPERTIES AT ASSIGNED

                           TEMPERATURE AND PRESSURE

 CASE =                

             REACTANT                    WT FRACTION      ENERGY      TEMP
                                          (SEE NOTE)     KJ/KG-MOL      K  
 FUEL        H2                           1.0000000         0.000      0.000
 OXIDANT     H2                           1.0000000         0.000      0.000

 O/F=    1.00000  %FUEL= 50.000000  R,EQ.RATIO= 0.000000  PHI,EQ.RATIO=-1.000000

 THERMODYNAMIC PROPERTIES

 P, BAR            1.4800   1.4800   1.4800   1.4800   1.4800   1.4800   1.4800   1.4800
 T, K             3070.00  3080.00  3090.00  3100.00  3110.00  3120.00  3130.00  3140.00
 RHO, KG/CU M    1.0823-2 1.0764-2 1.0706-2 1.0647-2 1.0588-2 1.0530-2 1.0471-2 1.0412-2
 H, KJ/KG         63544.1  64268.4  65004.9  65753.8  66515.3  67289.6  68076.7  68876.9
 U, KJ/KG         49869.6  50519.4  51180.6  51853.3  52537.6  53233.8  53942.0  54662.3
 G, KJ/KG       -262043.3-263105.1-264169.1-265235.6-266304.6-267376.0-268449.9-269526.3
 S, KJ/(KG)(K)   106.0545 106.2901 106.5288 106.7708 107.0160 107.2646 107.5165 107.7717

 M, (1/n)           1.867    1.863    1.858    1.854    1.850    1.846    1.841    1.837
 (dLV/dLP)t      -1.03678 -1.03776 -1.03877 -1.03979 -1.04082 -1.04188 -1.04294 -1.04403
 (dLV/dLT)p        1.6626   1.6782   1.6941   1.7101   1.7263   1.7427   1.7593   1.7761
 Cp, KJ/(KG)(K)   71.8184  73.0358  74.2694  75.5192  76.7850  78.0667  79.3641  80.6771
 GAMMAs            1.1556   1.1552   1.1549   1.1545   1.1542   1.1539   1.1536   1.1534
 SON VEL,M/SEC     3975.2   3985.4   3995.7   4006.1   4016.6   4027.3   4038.1   4049.0

 TRANSPORT PROPERTIES (GASES ONLY)
   CONDUCTIVITY IN UNITS OF MILLIWATTS/(CM)(K)

 VISC,MILLIPOISE  0.49911  0.50119  0.50327  0.50535  0.50745  0.50955  0.51166  0.51377

  WITH EQUILIBRIUM REACTIONS

 Cp, KJ/(KG)(K)   71.8184  73.0358  74.2694  75.5192  76.7850  78.0667  79.3641  80.6771
 CONDUCTIVITY     77.8721  79.4369  81.0198  82.6205  84.2384  85.8733  87.5246  89.1919
 PRANDTL NUMBER    0.4603   0.4608   0.4613   0.4619   0.4626   0.4632   0.4640   0.4647

  WITH FROZEN REACTIONS

 Cp, KJ/(KG)(K)   18.6429  18.6580  18.6732  18.6884  18.7036  18.7189  18.7342  18.7495
 CONDUCTIVITY     13.4011  13.4681  13.5353  13.6026  13.6700  13.7375  13.8051  13.8727
 PRANDTL NUMBER    0.6943   0.6943   0.6943   0.6943   0.6943   0.6943   0.6943   0.6944

 MASS FRACTIONS

 *H               0.07994  0.08230  0.08471  0.08717  0.08969  0.09226  0.09489  0.09758
 *H2              0.92006  0.91770  0.91529  0.91283  0.91031  0.90774  0.90511  0.90242

  * THERMODYNAMIC PROPERTIES FITTED TO 20000.K

 NOTE. WEIGHT FRACTION OF FUEL IN TOTAL FUELS AND OF OXIDANT IN TOTAL OXIDANTS









               THERMODYNAMIC EQUILIBRIUM PROPERTIES AT ASSIGNED

                           TEMPERATURE AND PRESSURE

 CASE =                

             REACTANT                    WT FRACTION      ENERGY      TEMP
                                          (SEE NOTE)     KJ/KG-MOL      K  
 FUEL        H2                           1.0000000         0.000      0.000
 OXIDANT     H2                           1.0000000         0.000      0.000

 O/F=    1.00000  %FUEL= 50.000000  R,EQ.RATIO= 0.000000  PHI,EQ.RATIO=-1.000000

 THERMODYNAMIC PROPERTIES

 P, BAR            1.4800   1.4800   1.4800   1.4800   1.4800   1.6500   1.6500   1.6500
 T, K             3150.00  3160.00  3170.00  3180.00  3190.00  3050.00  3060.00  3070.00
 RHO, KG/CU M    1.0353-2 1.0294-2 1.0235-2 1.0176-2 1.0117-2 1.2242-2 1.2178-2 1.2113-2
 H, KJ/KG         69690.3  70517.1  71357.3  72211.3  73079.0  61226.6  61900.0  62584.7
 U, KJ/KG         55394.8  56139.7  56897.1  57667.2  58450.0  47748.5  48350.7  48963.5
 G, KJ/KG       -270605.3-271686.9-272771.2-273858.1-274947.7-258458.7-259507.9-260559.4
 S, KJ/(KG)(K)   108.0304 108.2924 108.5579 108.8268 109.0993 104.8149 105.0353 105.2587

 M, (1/n)           1.832    1.827    1.823    1.818    1.813    1.882    1.878    1.874
 (dLV/dLP)t      -1.04513 -1.04624 -1.04737 -1.04852 -1.04968 -1.03316 -1.03407 -1.03500
 (dLV/dLT)p        1.7930   1.8101   1.8273   1.8447   1.8623   1.6012   1.6158   1.6306
 Cp, KJ/(KG)(K)   82.0055  83.3491  84.7076  86.0808  87.4684  66.7773  67.9034  69.0454
 GAMMAs            1.1531   1.1529   1.1527   1.1525   1.1523   1.1581   1.1576   1.1572
 SON VEL,M/SEC     4060.1   4071.3   4082.6   4094.1   4105.7   3950.8   3960.5   3970.2

 TRANSPORT PROPERTIES (GASES ONLY)
   CONDUCTIVITY IN UNITS OF MILLIWATTS/(CM)(K)

 VISC,MILLIPOISE  0.51589  0.51801  0.52014  0.52227  0.52440  0.49365  0.49568  0.49772

  WITH EQUILIBRIUM REACTIONS

 Cp, KJ/(KG)(K)   82.0055  83.3491  84.7076  86.0808  87.4684  66.7773  67.9034  69.0454
 CONDUCTIVITY     90.8747  92.5724  94.2844  96.0102  97.7491  71.7645  73.2298  74.7137
 PRANDTL NUMBER    0.4655   0.4664   0.4673   0.4683   0.4692   0.4593   0.4596   0.4600

  WITH FROZEN REACTIONS

 Cp, KJ/(KG)(K)   18.7649  18.7803  18.7957  18.8112  18.8267  18.6040  18.6189  18.6338
 CONDUCTIVITY     13.9403  14.0079  14.0755  14.1430  14.2104  13.2226  13.2886  13.3549
 PRANDTL NUMBER    0.6944   0.6945   0.6946   0.6947   0.6948   0.6946   0.6945   0.6945

 MASS FRACTIONS

 *H               0.10032  0.10312  0.10597  0.10889  0.11186  0.07142  0.07355  0.07574
 *H2              0.89968  0.89688  0.89403  0.89111  0.88814  0.92858  0.92645  0.92426

  * THERMODYNAMIC PROPERTIES FITTED TO 20000.K

 NOTE. WEIGHT FRACTION OF FUEL IN TOTAL FUELS AND OF OXIDANT IN TOTAL OXIDANTS









               THERMODYNAMIC EQUILIBRIUM PROPERTIES AT ASSIGNED

                           TEMPERATURE AND PRESSURE

 CASE =                

             REACTANT                    WT FRACTION      ENERGY      TEMP
                                          (SEE NOTE)     KJ/KG-MOL      K  
 FUEL        H2                           1.0000000         0.000      0.000
 OXIDANT     H2                           1.0000000         0.000      0.000

 O/F=    1.00000  %FUEL= 50.000000  R,EQ.RATIO= 0.000000  PHI,EQ.RATIO=-1.000000

 THERMODYNAMIC PROPERTIES

 P, BAR            1.6500   1.6500   1.6500   1.6500   1.6500   1.6500   1.6500   1.6500
 T, K             3080.00  3090.00  3100.00  3110.00  3120.00  3130.00  3140.00  3150.00
 RHO, KG/CU M    1.2049-2 1.1985-2 1.1920-2 1.1856-2 1.1791-2 1.1727-2 1.1662-2 1.1597-2
 H, KJ/KG         63281.0  63988.9  64708.6  65440.2  66184.0  66940.1  67708.6  68489.6
 U, KJ/KG         49587.0  50221.3  50866.6  51522.9  52190.6  52869.6  53560.2  54262.4
 G, KJ/KG       -261613.1-262669.1-263727.4-264788.0-265851.1-266916.5-267984.3-269054.7
 S, KJ/(KG)(K)   105.4851 105.7145 105.9471 106.1827 106.4215 106.6634 106.9086 107.1569

 M, (1/n)           1.870    1.866    1.862    1.858    1.854    1.850    1.845    1.841
 (dLV/dLP)t      -1.03595 -1.03691 -1.03789 -1.03888 -1.03989 -1.04091 -1.04195 -1.04301
 (dLV/dLT)p        1.6456   1.6608   1.6762   1.6917   1.7075   1.7234   1.7395   1.7558
 Cp, KJ/(KG)(K)   70.2031  71.3765  72.5655  73.7701  74.9902  76.2255  77.4760  78.7415
 GAMMAs            1.1568   1.1564   1.1561   1.1557   1.1554   1.1551   1.1548   1.1545
 SON VEL,M/SEC     3980.1   3990.1   4000.3   4010.5   4020.9   4031.4   4042.1   4052.8

 TRANSPORT PROPERTIES (GASES ONLY)
   CONDUCTIVITY IN UNITS OF MILLIWATTS/(CM)(K)

 VISC,MILLIPOISE  0.49977  0.50183  0.50390  0.50597  0.50806  0.51015  0.51225  0.51435

  WITH EQUILIBRIUM REACTIONS

 Cp, KJ/(KG)(K)   70.2031  71.3765  72.5655  73.7701  74.9902  76.2255  77.4760  78.7415
 CONDUCTIVITY     76.2160  77.7364  79.2745  80.8300  82.4025  83.9917  85.5971  87.2184
 PRANDTL NUMBER    0.4603   0.4608   0.4613   0.4618   0.4624   0.4630   0.4636   0.4644

  WITH FROZEN REACTIONS

 Cp, KJ/(KG)(K)   18.6488  18.6637  18.6787  18.6937  18.7088  18.7238  18.7389  18.7541
 CONDUCTIVITY     13.4214  13.4881  13.5550  13.6220  13.6891  13.7563  13.8236  13.8910
 PRANDTL NUMBER    0.6944   0.6944   0.6944   0.6944   0.6944   0.6944   0.6944   0.6944

 MASS FRACTIONS

 *H               0.07797  0.08026  0.08259  0.08498  0.08742  0.08991  0.09246  0.09506
 *H2              0.92203  0.91974  0.91741  0.91502  0.91258  0.91009  0.90754  0.90494

  * THERMODYNAMIC PROPERTIES FITTED TO 20000.K

 NOTE. WEIGHT FRACTION OF FUEL IN TOTAL FUELS AND OF OXIDANT IN TOTAL OXIDANTS









               THERMODYNAMIC EQUILIBRIUM PROPERTIES AT ASSIGNED

                           TEMPERATURE AND PRESSURE

 CASE =                

             REACTANT                    WT FRACTION      ENERGY      TEMP
                                          (SEE NOTE)     KJ/KG-MOL      K  
 FUEL        H2                           1.0000000         0.000      0.000
 OXIDANT     H2                           1.0000000         0.000      0.000

 O/F=    1.00000  %FUEL= 50.000000  R,EQ.RATIO= 0.000000  PHI,EQ.RATIO=-1.000000

 THERMODYNAMIC PROPERTIES

 P, BAR            1.6500   1.6500   1.6500   1.6500   1.8000   1.8000   1.8000   1.8000
 T, K             3160.00  3170.00  3180.00  3190.00  3050.00  3060.00  3070.00  3080.00
 RHO, KG/CU M    1.1533-2 1.1468-2 1.1403-2 1.1339-2 1.3393-2 1.3323-2 1.3254-2 1.3185-2
 H, KJ/KG         69283.4  70090.1  70909.8  71742.7  60536.4  61189.3  61853.1  62527.9
 U, KJ/KG         54976.5  55702.4  56440.5  57190.7  47096.4  47679.3  48272.5  48875.8
 G, KJ/KG       -270127.5-271202.9-272280.8-273361.3-257287.6-258330.7-259376.0-260423.4
 S, KJ/(KG)(K)   107.4085 107.6634 107.9216 108.1831 104.2046 104.4183 104.6349 104.8543

 M, (1/n)           1.836    1.832    1.827    1.823    1.887    1.883    1.880    1.876
 (dLV/dLP)t      -1.04408 -1.04517 -1.04627 -1.04739 -1.03186 -1.03274 -1.03363 -1.03455
 (dLV/dLT)p        1.7723   1.7889   1.8056   1.8226   1.5776   1.5917   1.6060   1.6205
 Cp, KJ/(KG)(K)   80.0219  81.3170  82.6265  83.9503  64.7493  65.8304  66.9269  68.0387
 GAMMAs            1.1542   1.1540   1.1538   1.1536   1.1595   1.1590   1.1585   1.1581
 SON VEL,M/SEC     4063.7   4074.7   4085.9   4097.1   3947.6   3957.0   3966.6   3976.3

 TRANSPORT PROPERTIES (GASES ONLY)
   CONDUCTIVITY IN UNITS OF MILLIWATTS/(CM)(K)

 VISC,MILLIPOISE  0.51646  0.51857  0.52069  0.52281  0.49260  0.49461  0.49663  0.49866

  WITH EQUILIBRIUM REACTIONS

 Cp, KJ/(KG)(K)   80.0219  81.3170  82.6265  83.9503  64.7493  65.8304  66.9269  68.0387
 CONDUCTIVITY     88.8549  90.5063  92.1720  93.8514  69.4313  70.8480  72.2830  73.7363
 PRANDTL NUMBER    0.4651   0.4659   0.4668   0.4677   0.4594   0.4596   0.4598   0.4601

  WITH FROZEN REACTIONS

 Cp, KJ/(KG)(K)   18.7692  18.7844  18.7996  18.8148  18.5975  18.6122  18.6269  18.6417
 CONDUCTIVITY     13.9584  14.0258  14.0932  14.1606  13.1871  13.2527  13.3185  13.3846
 PRANDTL NUMBER    0.6945   0.6945   0.6946   0.6946   0.6947   0.6946   0.6946   0.6945

 MASS FRACTIONS

 *H               0.09771  0.10042  0.10319  0.10601  0.06839  0.07044  0.07253  0.07467
 *H2              0.90229  0.89958  0.89681  0.89399  0.93161  0.92956  0.92747  0.92533

  * THERMODYNAMIC PROPERTIES FITTED TO 20000.K

 NOTE. WEIGHT FRACTION OF FUEL IN TOTAL FUELS AND OF OXIDANT IN TOTAL OXIDANTS









               THERMODYNAMIC EQUILIBRIUM PROPERTIES AT ASSIGNED

                           TEMPERATURE AND PRESSURE

 CASE =                

             REACTANT                    WT FRACTION      ENERGY      TEMP
                                          (SEE NOTE)     KJ/KG-MOL      K  
 FUEL        H2                           1.0000000         0.000      0.000
 OXIDANT     H2                           1.0000000         0.000      0.000

 O/F=    1.00000  %FUEL= 50.000000  R,EQ.RATIO= 0.000000  PHI,EQ.RATIO=-1.000000

 THERMODYNAMIC PROPERTIES

 P, BAR            1.8000   1.8000   1.8000   1.8000   1.8000   1.8000   1.8000   1.8000
 T, K             3090.00  3100.00  3110.00  3120.00  3130.00  3140.00  3150.00  3160.00
 RHO, KG/CU M    1.3115-2 1.3046-2 1.2977-2 1.2907-2 1.2838-2 1.2768-2 1.2698-2 1.2629-2
 H, KJ/KG         63213.9  63911.3  64620.1  65340.6  66072.9  66817.2  67573.5  68342.1
 U, KJ/KG         49489.6  50114.0  50749.0  51394.8  52051.5  52719.4  53398.5  54088.9
 G, KJ/KG       -261473.1-262524.9-263579.1-264635.6-265694.3-266755.5-267819.0-268885.0
 S, KJ/(KG)(K)   105.0767 105.3020 105.5303 105.7616 105.9959 106.2333 106.4738 106.7174

 M, (1/n)           1.872    1.868    1.864    1.860    1.856    1.852    1.848    1.843
 (dLV/dLP)t      -1.03548 -1.03642 -1.03738 -1.03836 -1.03935 -1.04036 -1.04138 -1.04242
 (dLV/dLT)p        1.6352   1.6500   1.6651   1.6803   1.6958   1.7113   1.7271   1.7431
 Cp, KJ/(KG)(K)   69.1658  70.3080  71.4654  72.6379  73.8252  75.0274  76.2443  77.4758
 GAMMAs            1.1577   1.1573   1.1569   1.1566   1.1563   1.1559   1.1556   1.1554
 SON VEL,M/SEC     3986.1   3996.0   4006.0   4016.2   4026.5   4036.9   4047.4   4058.0

 TRANSPORT PROPERTIES (GASES ONLY)
   CONDUCTIVITY IN UNITS OF MILLIWATTS/(CM)(K)

 VISC,MILLIPOISE  0.50070  0.50275  0.50481  0.50688  0.50896  0.51104  0.51313  0.51523

  WITH EQUILIBRIUM REACTIONS

 Cp, KJ/(KG)(K)   69.1658  70.3080  71.4654  72.6379  73.8252  75.0274  76.2443  77.4758
 CONDUCTIVITY     75.2076  76.6965  78.2028  79.7262  81.2663  82.8228  84.3952  85.9832
 PRANDTL NUMBER    0.4605   0.4609   0.4613   0.4618   0.4624   0.4629   0.4636   0.4642

  WITH FROZEN REACTIONS

 Cp, KJ/(KG)(K)   18.6565  18.6713  18.6861  18.7010  18.7159  18.7308  18.7458  18.7607
 CONDUCTIVITY     13.4509  13.5173  13.5839  13.6507  13.7176  13.7847  13.8518  13.9190
 PRANDTL NUMBER    0.6945   0.6944   0.6944   0.6944   0.6944   0.6944   0.6944   0.6944

 MASS FRACTIONS

 *H               0.07686  0.07910  0.08139  0.08372  0.08611  0.08855  0.09105  0.09359
 *H2              0.92314  0.92090  0.91861  0.91628  0.91389  0.91145  0.90895  0.90641

  * THERMODYNAMIC PROPERTIES FITTED TO 20000.K

 NOTE. WEIGHT FRACTION OF FUEL IN TOTAL FUELS AND OF OXIDANT IN TOTAL OXIDANTS









               THERMODYNAMIC EQUILIBRIUM PROPERTIES AT ASSIGNED

                           TEMPERATURE AND PRESSURE

 CASE =                

             REACTANT                    WT FRACTION      ENERGY      TEMP
                                          (SEE NOTE)     KJ/KG-MOL      K  
 FUEL        H2                           1.0000000         0.000      0.000
 OXIDANT     H2                           1.0000000         0.000      0.000

 O/F=    1.00000  %FUEL= 50.000000  R,EQ.RATIO= 0.000000  PHI,EQ.RATIO=-1.000000

 THERMODYNAMIC PROPERTIES

 P, BAR            1.8000   1.8000   1.8000   2.0000   2.0000   2.0000   2.0000   2.0000
 T, K             3170.00  3180.00  3190.00  3050.00  3060.00  3070.00  3080.00  3090.00
 RHO, KG/CU M    1.2559-2 1.2489-2 1.2420-2 1.4930-2 1.4854-2 1.4778-2 1.4702-2 1.4626-2
 H, KJ/KG         69123.1  69916.6  70722.8  59739.4  60368.6  61008.1  61658.1  62318.8
 U, KJ/KG         54790.8  55504.3  56229.5  46343.3  46904.0  47474.4  48054.5  48644.5
 G, KJ/KG       -269953.4-271024.3-272097.7-255873.9-256909.7-257947.6-258987.6-260029.7
 S, KJ/(KG)(K)   106.9642 107.2141 107.4672 103.4798 103.6857 103.8944 104.1058 104.3199

 M, (1/n)           1.839    1.835    1.830    1.893    1.890    1.886    1.882    1.879
 (dLV/dLP)t      -1.04347 -1.04454 -1.04562 -1.03034 -1.03119 -1.03204 -1.03292 -1.03381
 (dLV/dLT)p        1.7592   1.7754   1.7919   1.5502   1.5637   1.5774   1.5912   1.6053
 Cp, KJ/(KG)(K)   78.7217  79.9818  81.2560  62.4041  63.4329  64.4765  65.5349  66.6080
 GAMMAs            1.1551   1.1548   1.1546   1.1612   1.1607   1.1602   1.1597   1.1593
 SON VEL,M/SEC     4068.8   4079.7   4090.7   3944.0   3953.2   3962.5   3972.0   3981.5

 TRANSPORT PROPERTIES (GASES ONLY)
   CONDUCTIVITY IN UNITS OF MILLIWATTS/(CM)(K)

 VISC,MILLIPOISE  0.51733  0.51943  0.52155  0.49135  0.49334  0.49534  0.49735  0.49937

  WITH EQUILIBRIUM REACTIONS

 Cp, KJ/(KG)(K)   78.7217  79.9818  81.2560  62.4041  63.4329  64.4765  65.5349  66.6080
 CONDUCTIVITY     87.5863  89.2041  90.8360  66.7157  68.0748  69.4520  70.8473  72.2603
 PRANDTL NUMBER    0.4650   0.4657   0.4665   0.4596   0.4597   0.4599   0.4601   0.4603

  WITH FROZEN REACTIONS

 Cp, KJ/(KG)(K)   18.7757  18.7908  18.8058  18.5899  18.6044  18.6190  18.6335  18.6481
 CONDUCTIVITY     13.9862  14.0535  14.1207  13.1451  13.2100  13.2752  13.3407  13.4064
 PRANDTL NUMBER    0.6945   0.6945   0.6946   0.6949   0.6948   0.6947   0.6947   0.6946

 MASS FRACTIONS

 *H               0.09619  0.09884  0.10155  0.06490  0.06684  0.06883  0.07086  0.07294
 *H2              0.90381  0.90116  0.89845  0.93510  0.93316  0.93117  0.92914  0.92706

  * THERMODYNAMIC PROPERTIES FITTED TO 20000.K

 NOTE. WEIGHT FRACTION OF FUEL IN TOTAL FUELS AND OF OXIDANT IN TOTAL OXIDANTS









               THERMODYNAMIC EQUILIBRIUM PROPERTIES AT ASSIGNED

                           TEMPERATURE AND PRESSURE

 CASE =                

             REACTANT                    WT FRACTION      ENERGY      TEMP
                                          (SEE NOTE)     KJ/KG-MOL      K  
 FUEL        H2                           1.0000000         0.000      0.000
 OXIDANT     H2                           1.0000000         0.000      0.000

 O/F=    1.00000  %FUEL= 50.000000  R,EQ.RATIO= 0.000000  PHI,EQ.RATIO=-1.000000

 THERMODYNAMIC PROPERTIES

 P, BAR            2.0000   2.0000   2.0000   2.0000   2.0000   2.0000   2.0000   2.0000
 T, K             3100.00  3110.00  3120.00  3130.00  3140.00  3150.00  3160.00  3170.00
 RHO, KG/CU M    1.4550-2 1.4474-2 1.4398-2 1.4322-2 1.4246-2 1.4169-2 1.4093-2 1.4017-2
 H, KJ/KG         62990.3  63672.8  64366.4  65071.1  65787.3  66515.0  67254.4  68005.6
 U, KJ/KG         49244.6  49854.9  50475.4  51106.4  51748.0  52400.2  53063.3  53737.3
 G, KJ/KG       -261074.0-262120.5-263169.1-264220.1-265273.2-266328.7-267386.5-268446.7
 S, KJ/(KG)(K)   104.5369 104.7567 104.9793 105.2049 105.4333 105.6647 105.8990 106.1364

 M, (1/n)           1.875    1.871    1.867    1.864    1.860    1.856    1.851    1.847
 (dLV/dLP)t      -1.03471 -1.03564 -1.03657 -1.03752 -1.03849 -1.03947 -1.04047 -1.04148
 (dLV/dLT)p        1.6196   1.6340   1.6487   1.6635   1.6785   1.6936   1.7089   1.7244
 Cp, KJ/(KG)(K)   67.6957  68.7980  69.9149  71.0462  72.1920  73.3520  74.5262  75.7145
 GAMMAs            1.1589   1.1585   1.1581   1.1577   1.1574   1.1571   1.1568   1.1565
 SON VEL,M/SEC     3991.2   4001.0   4010.9   4020.9   4031.0   4041.3   4051.6   4062.1

 TRANSPORT PROPERTIES (GASES ONLY)
   CONDUCTIVITY IN UNITS OF MILLIWATTS/(CM)(K)

 VISC,MILLIPOISE  0.50140  0.50344  0.50548  0.50754  0.50960  0.51168  0.51375  0.51584

  WITH EQUILIBRIUM REACTIONS

 Cp, KJ/(KG)(K)   67.6957  68.7980  69.9149  71.0462  72.1920  73.3520  74.5262  75.7145
 CONDUCTIVITY     73.6909  75.1388  76.6036  78.0852  79.5832  81.0973  82.6271  84.1722
 PRANDTL NUMBER    0.4606   0.4610   0.4613   0.4618   0.4623   0.4628   0.4634   0.4640

  WITH FROZEN REACTIONS

 Cp, KJ/(KG)(K)   18.6628  18.6774  18.6921  18.7067  18.7215  18.7362  18.7510  18.7657
 CONDUCTIVITY     13.4724  13.5385  13.6048  13.6713  13.7379  13.8046  13.8715  13.9384
 PRANDTL NUMBER    0.6946   0.6945   0.6945   0.6945   0.6945   0.6945   0.6945   0.6945

 MASS FRACTIONS

 *H               0.07506  0.07724  0.07946  0.08172  0.08404  0.08641  0.08883  0.09129
 *H2              0.92494  0.92276  0.92054  0.91828  0.91596  0.91359  0.91117  0.90871

  * THERMODYNAMIC PROPERTIES FITTED TO 20000.K

 NOTE. WEIGHT FRACTION OF FUEL IN TOTAL FUELS AND OF OXIDANT IN TOTAL OXIDANTS









               THERMODYNAMIC EQUILIBRIUM PROPERTIES AT ASSIGNED

                           TEMPERATURE AND PRESSURE

 CASE =                

             REACTANT                    WT FRACTION      ENERGY      TEMP
                                          (SEE NOTE)     KJ/KG-MOL      K  
 FUEL        H2                           1.0000000         0.000      0.000
 OXIDANT     H2                           1.0000000         0.000      0.000

 O/F=    1.00000  %FUEL= 50.000000  R,EQ.RATIO= 0.000000  PHI,EQ.RATIO=-1.000000

 THERMODYNAMIC PROPERTIES

 P, BAR            2.0000   2.0000   2.2500   2.2500   2.2500   2.2500   2.2500   2.2500
 T, K             3180.00  3190.00  3050.00  3060.00  3070.00  3080.00  3090.00  3100.00
 RHO, KG/CU M    1.3941-2 1.3864-2 1.6854-2 1.6770-2 1.6686-2 1.6602-2 1.6518-2 1.6434-2
 H, KJ/KG         68768.7  69544.0  58896.1  59500.1  60114.0  60737.8  61371.6  62015.7
 U, KJ/KG         54422.4  55118.6  45546.5  46083.6  46629.9  47185.4  47750.2  48324.6
 G, KJ/KG       -269509.3-270574.3-254298.8-255326.7-256356.5-257388.4-258422.3-259458.2
 S, KJ/(KG)(K)   106.3767 106.6201 102.6869 102.8846 103.0848 103.2877 103.4932 103.7013

 M, (1/n)           1.843    1.839    1.900    1.896    1.893    1.890    1.886    1.883
 (dLV/dLP)t      -1.04251 -1.04355 -1.02873 -1.02953 -1.03035 -1.03118 -1.03203 -1.03289
 (dLV/dLT)p        1.7401   1.7559   1.5209   1.5337   1.5468   1.5600   1.5734   1.5870
 Cp, KJ/(KG)(K)   76.9167  78.1326  59.9193  60.8924  61.8796  62.8810  63.8964  64.9258
 GAMMAs            1.1562   1.1559   1.1631   1.1626   1.1621   1.1616   1.1611   1.1607
 SON VEL,M/SEC     4072.7   4083.5   3940.4   3949.4   3958.5   3967.7   3977.0   3986.4

 TRANSPORT PROPERTIES (GASES ONLY)
   CONDUCTIVITY IN UNITS OF MILLIWATTS/(CM)(K)

 VISC,MILLIPOISE  0.51793  0.52003  0.49000  0.49196  0.49393  0.49592  0.49791  0.49992

  WITH EQUILIBRIUM REACTIONS

 Cp, KJ/(KG)(K)   76.9167  78.1326  59.9193  60.8924  61.8796  62.8810  63.8964  64.9258
 CONDUCTIVITY     85.7323  87.3068  63.8176  65.1143  66.4288  67.7610  69.1107  70.4776
 PRANDTL NUMBER    0.4647   0.4654   0.4601   0.4601   0.4601   0.4602   0.4603   0.4605

  WITH FROZEN REACTIONS

 Cp, KJ/(KG)(K)   18.7805  18.7954  18.5818  18.5962  18.6105  18.6249  18.6393  18.6537
 CONDUCTIVITY     14.0055  14.0725  13.0991  13.1634  13.2279  13.2927  13.3577  13.4230
 PRANDTL NUMBER    0.6945   0.6946   0.6951   0.6950   0.6949   0.6948   0.6948   0.6947

 MASS FRACTIONS

 *H               0.09381  0.09639  0.06120  0.06303  0.06491  0.06683  0.06879  0.07079
 *H2              0.90619  0.90361  0.93880  0.93697  0.93509  0.93317  0.93121  0.92921

  * THERMODYNAMIC PROPERTIES FITTED TO 20000.K

 NOTE. WEIGHT FRACTION OF FUEL IN TOTAL FUELS AND OF OXIDANT IN TOTAL OXIDANTS









               THERMODYNAMIC EQUILIBRIUM PROPERTIES AT ASSIGNED

                           TEMPERATURE AND PRESSURE

 CASE =                

             REACTANT                    WT FRACTION      ENERGY      TEMP
                                          (SEE NOTE)     KJ/KG-MOL      K  
 FUEL        H2                           1.0000000         0.000      0.000
 OXIDANT     H2                           1.0000000         0.000      0.000

 O/F=    1.00000  %FUEL= 50.000000  R,EQ.RATIO= 0.000000  PHI,EQ.RATIO=-1.000000

 THERMODYNAMIC PROPERTIES

 P, BAR            2.2500   2.2500   2.2500   2.2500   2.2500   2.2500   2.2500   2.2500
 T, K             3110.00  3120.00  3130.00  3140.00  3150.00  3160.00  3170.00  3180.00
 RHO, KG/CU M    1.6350-2 1.6266-2 1.6181-2 1.6097-2 1.6013-2 1.5929-2 1.5844-2 1.5760-2
 H, KJ/KG         62670.2  63335.2  64010.8  64697.2  65394.5  66102.9  66822.5  67553.4
 U, KJ/KG         48908.6  49502.4  50106.0  50719.7  51343.4  51977.5  52621.9  53276.8
 G, KJ/KG       -260496.3-261536.5-262578.8-263623.3-264670.0-265719.0-266770.2-267823.7
 S, KJ/(KG)(K)   103.9121 104.1255 104.3417 104.5607 104.7824 105.0069 105.2343 105.4645

 M, (1/n)           1.879    1.875    1.872    1.868    1.864    1.860    1.856    1.852
 (dLV/dLP)t      -1.03377 -1.03466 -1.03557 -1.03649 -1.03743 -1.03838 -1.03935 -1.04033
 (dLV/dLT)p        1.6008   1.6148   1.6289   1.6432   1.6577   1.6724   1.6872   1.7022
 Cp, KJ/(KG)(K)   65.9693  67.0268  68.0982  69.1834  70.2825  71.3952  72.5216  73.6615
 GAMMAs            1.1603   1.1598   1.1595   1.1591   1.1587   1.1584   1.1581   1.1578
 SON VEL,M/SEC     3995.9   4005.5   4015.2   4025.1   4035.0   4045.1   4055.3   4065.6

 TRANSPORT PROPERTIES (GASES ONLY)
   CONDUCTIVITY IN UNITS OF MILLIWATTS/(CM)(K)

 VISC,MILLIPOISE  0.50193  0.50395  0.50599  0.50803  0.51008  0.51214  0.51420  0.51627

  WITH EQUILIBRIUM REACTIONS

 Cp, KJ/(KG)(K)   65.9693  67.0268  68.0982  69.1834  70.2825  71.3952  72.5216  73.6615
 CONDUCTIVITY     71.8617  73.2626  74.6801  76.1140  77.5640  79.0298  80.5110  82.0073
 PRANDTL NUMBER    0.4608   0.4611   0.4614   0.4618   0.4622   0.4627   0.4632   0.4637

  WITH FROZEN REACTIONS

 Cp, KJ/(KG)(K)   18.6681  18.6826  18.6971  18.7115  18.7261  18.7406  18.7552  18.7697
 CONDUCTIVITY     13.4886  13.5543  13.6202  13.6863  13.7526  13.8190  13.8855  13.9522
 PRANDTL NUMBER    0.6947   0.6946   0.6946   0.6946   0.6945   0.6945   0.6945   0.6945

 MASS FRACTIONS

 *H               0.07284  0.07494  0.07708  0.07927  0.08150  0.08378  0.08611  0.08849
 *H2              0.92716  0.92506  0.92292  0.92073  0.91850  0.91622  0.91389  0.91151

  * THERMODYNAMIC PROPERTIES FITTED TO 20000.K

 NOTE. WEIGHT FRACTION OF FUEL IN TOTAL FUELS AND OF OXIDANT IN TOTAL OXIDANTS









               THERMODYNAMIC EQUILIBRIUM PROPERTIES AT ASSIGNED

                           TEMPERATURE AND PRESSURE

 CASE =                

             REACTANT                    WT FRACTION      ENERGY      TEMP
                                          (SEE NOTE)     KJ/KG-MOL      K  
 FUEL        H2                           1.0000000         0.000      0.000
 OXIDANT     H2                           1.0000000         0.000      0.000

 O/F=    1.00000  %FUEL= 50.000000  R,EQ.RATIO= 0.000000  PHI,EQ.RATIO=-1.000000

 THERMODYNAMIC PROPERTIES

 P, BAR            2.2500
 T, K             3190.00
 RHO, KG/CU M    1.5676-2
 H, KJ/KG         68295.7
 U, KJ/KG         53942.3
 G, KJ/KG       -268879.5
 S, KJ/(KG)(K)   105.6976

 M, (1/n)           1.848
 (dLV/dLP)t      -1.04133
 (dLV/dLT)p        1.7174
 Cp, KJ/(KG)(K)   74.8147
 GAMMAs            1.1575
 SON VEL,M/SEC     4076.0

 TRANSPORT PROPERTIES (GASES ONLY)
   CONDUCTIVITY IN UNITS OF MILLIWATTS/(CM)(K)

 VISC,MILLIPOISE  0.51835

  WITH EQUILIBRIUM REACTIONS

 Cp, KJ/(KG)(K)   74.8147
 CONDUCTIVITY     83.5184
 PRANDTL NUMBER    0.4643

  WITH FROZEN REACTIONS

 Cp, KJ/(KG)(K)   18.7843
 CONDUCTIVITY     14.0189
 PRANDTL NUMBER    0.6946

 MASS FRACTIONS

 *H               0.09092
 *H2              0.90908

  * THERMODYNAMIC PROPERTIES FITTED TO 20000.K

 NOTE. WEIGHT FRACTION OF FUEL IN TOTAL FUELS AND OF OXIDANT IN TOTAL OXIDANTS



  
