
 *******************************************************************************

         NASA-GLENN CHEMICAL EQUILIBRIUM PROGRAM CEA2, MAY 21, 2004
                   BY  BONNIE MCBRIDE AND SANFORD GORDON
      REFS: NASA RP-1311, PART I, 1994 AND NASA RP-1311, PART II, 1996

 *******************************************************************************



  prob tp ions
  p,bar= 12.0,13.2,14.8,16.5,18.0,20.0,22.5,25.0,28.0,31.0,35.0,39.0,44.0,49.0,54
 .0
  t,k= 375,380,385,390,395,400,405,410,415,420,425,430,435,440,445
  
  
  reac
  fuel H2                wt%=100.0000
  oxid H2                wt%=100.0000
  
  output short
  
  output massf
  
  output siunits
  
  output transport
  
 end





               THERMODYNAMIC EQUILIBRIUM PROPERTIES AT ASSIGNED

                           TEMPERATURE AND PRESSURE

 CASE =                

             REACTANT                    WT FRACTION      ENERGY      TEMP
                                          (SEE NOTE)     KJ/KG-MOL      K  
 FUEL        H2                           1.0000000         0.000      0.000
 OXIDANT     H2                           1.0000000         0.000      0.000

 O/F=    1.00000  %FUEL= 50.000000  R,EQ.RATIO= 0.000000  PHI,EQ.RATIO=-1.000000

 THERMODYNAMIC PROPERTIES

 P, BAR            12.000   12.000   12.000   12.000   12.000   12.000   12.000   12.000
 T, K              375.00   380.00   385.00   390.00   395.00   400.00   405.00   410.00
 RHO, KG/CU M    7.7585-1 7.6564-1 7.5570-1 7.4601-1 7.3657-1 7.2736-1 7.1838-1 7.0962-1
 H, KJ/KG         1106.48  1178.78  1251.12  1323.47  1395.84  1468.23  1540.64  1613.06
 U, KJ/KG         -440.21  -388.52  -336.81  -285.08  -233.33  -181.56  -129.78  -77.985
 G, KJ/KG        -20597.8 -20887.6 -21178.5 -21470.2 -21762.9 -22056.5 -22351.0 -22646.4
 S, KJ/(KG)(K)    57.8781  58.0695  58.2586  58.4453  58.6297  58.8118  58.9917  59.1694

 M, (1/n)           2.016    2.016    2.016    2.016    2.016    2.016    2.016    2.016
 (dLV/dLP)t      -1.00000 -1.00000 -1.00000 -1.00000 -1.00000 -1.00000 -1.00000 -1.00000
 (dLV/dLT)p        1.0000   1.0000   1.0000   1.0000   1.0000   1.0000   1.0000   1.0000
 Cp, KJ/(KG)(K)   14.4597  14.4644  14.4687  14.4726  14.4762  14.4795  14.4825  14.4852
 GAMMAs            1.3991   1.3989   1.3987   1.3986   1.3984   1.3983   1.3982   1.3981
 SON VEL,M/SEC     1471.0   1480.7   1490.3   1499.9   1509.4   1518.9   1528.3   1537.6

 TRANSPORT PROPERTIES (GASES ONLY)
   CONDUCTIVITY IN UNITS OF MILLIWATTS/(CM)(K)

 VISC,MILLIPOISE  0.00003  0.00020  0.00119  0.00655  0.02877  0.07220  0.10018  0.10874

  WITH EQUILIBRIUM REACTIONS

 Cp, KJ/(KG)(K)   14.4597  14.4644  14.4687  14.4726  14.4762  14.4795  14.4825  14.4852
 CONDUCTIVITY      0.0002   0.0012   0.0074   0.0423   0.2192   0.8398   1.7421   2.1946
 PRANDTL NUMBER    2.3378   2.3357   2.3208   2.2387   1.9000   1.2448   0.8329   0.7177

  WITH FROZEN REACTIONS

 Cp, KJ/(KG)(K)   14.4597  14.4644  14.4687  14.4726  14.4762  14.4795  14.4825  14.4852
 CONDUCTIVITY      0.0002   0.0012   0.0074   0.0423   0.2192   0.8398   1.7421   2.1946
 PRANDTL NUMBER    2.3378   2.3357   2.3208   2.2387   1.9000   1.2448   0.8329   0.7177

 MASS FRACTIONS

 *H2              1.00000  1.00000  1.00000  1.00000  1.00000  1.00000  1.00000  1.00000

  * THERMODYNAMIC PROPERTIES FITTED TO 20000.K

 NOTE. WEIGHT FRACTION OF FUEL IN TOTAL FUELS AND OF OXIDANT IN TOTAL OXIDANTS









               THERMODYNAMIC EQUILIBRIUM PROPERTIES AT ASSIGNED

                           TEMPERATURE AND PRESSURE

 CASE =                

             REACTANT                    WT FRACTION      ENERGY      TEMP
                                          (SEE NOTE)     KJ/KG-MOL      K  
 FUEL        H2                           1.0000000         0.000      0.000
 OXIDANT     H2                           1.0000000         0.000      0.000

 O/F=    1.00000  %FUEL= 50.000000  R,EQ.RATIO= 0.000000  PHI,EQ.RATIO=-1.000000

 THERMODYNAMIC PROPERTIES

 P, BAR            12.000   12.000   12.000   12.000   12.000   12.000   12.000   13.200
 T, K              415.00   420.00   425.00   430.00   435.00   440.00   445.00   375.00
 RHO, KG/CU M    7.0107-1 6.9273-1 6.8458-1 6.7662-1 6.6884-1 6.6124-1 6.5381-1 8.5344-1
 H, KJ/KG         1685.49  1757.93  1830.39  1902.85  1975.33  2047.81  2120.30  1106.47
 U, KJ/KG         -26.175   25.647   77.480   129.32   181.17   233.03   284.90  -440.21
 G, KJ/KG        -22942.7 -23239.9 -23537.9 -23836.8 -24136.5 -24437.0 -24738.4 -20450.4
 S, KJ/(KG)(K)    59.3450  59.5185  59.6900  59.8596  60.0271  60.1928  60.3566  57.4849

 M, (1/n)           2.016    2.016    2.016    2.016    2.016    2.016    2.016    2.016
 (dLV/dLP)t      -1.00000 -1.00000 -1.00000 -1.00000 -1.00000 -1.00000 -1.00000 -1.00000
 (dLV/dLT)p        1.0000   1.0000   1.0000   1.0000   1.0000   1.0000   1.0000   1.0000
 Cp, KJ/(KG)(K)   14.4877  14.4900  14.4920  14.4939  14.4957  14.4973  14.4988  14.4597
 GAMMAs            1.3980   1.3979   1.3978   1.3978   1.3977   1.3976   1.3976   1.3991
 SON VEL,M/SEC     1546.9   1556.1   1565.3   1574.5   1583.6   1592.6   1601.6   1471.0

 TRANSPORT PROPERTIES (GASES ONLY)
   CONDUCTIVITY IN UNITS OF MILLIWATTS/(CM)(K)

 VISC,MILLIPOISE  0.11129  0.11253  0.11351  0.11443  0.11533  0.11623  0.11713  0.00009

  WITH EQUILIBRIUM REACTIONS

 Cp, KJ/(KG)(K)   14.4877  14.4900  14.4920  14.4939  14.4957  14.4973  14.4988  14.4597
 CONDUCTIVITY      2.3251   2.3680   2.3920   2.4121   2.4313   2.4503   2.4692   0.0005
 PRANDTL NUMBER    0.6934   0.6886   0.6877   0.6876   0.6876   0.6877   0.6878   2.3369

  WITH FROZEN REACTIONS

 Cp, KJ/(KG)(K)   14.4877  14.4900  14.4920  14.4939  14.4957  14.4973  14.4988  14.4597
 CONDUCTIVITY      2.3251   2.3680   2.3920   2.4121   2.4313   2.4503   2.4692   0.0005
 PRANDTL NUMBER    0.6934   0.6886   0.6877   0.6876   0.6876   0.6877   0.6878   2.3369

 MASS FRACTIONS

 *H2              1.00000  1.00000  1.00000  1.00000  1.00000  1.00000  1.00000  1.00000

  * THERMODYNAMIC PROPERTIES FITTED TO 20000.K

 NOTE. WEIGHT FRACTION OF FUEL IN TOTAL FUELS AND OF OXIDANT IN TOTAL OXIDANTS









               THERMODYNAMIC EQUILIBRIUM PROPERTIES AT ASSIGNED

                           TEMPERATURE AND PRESSURE

 CASE =                

             REACTANT                    WT FRACTION      ENERGY      TEMP
                                          (SEE NOTE)     KJ/KG-MOL      K  
 FUEL        H2                           1.0000000         0.000      0.000
 OXIDANT     H2                           1.0000000         0.000      0.000

 O/F=    1.00000  %FUEL= 50.000000  R,EQ.RATIO= 0.000000  PHI,EQ.RATIO=-1.000000

 THERMODYNAMIC PROPERTIES

 P, BAR            13.200   13.200   13.200   13.200   13.200   13.200   13.200   13.200
 T, K              380.00   385.00   390.00   395.00   400.00   405.00   410.00   415.00
 RHO, KG/CU M    8.4221-1 8.3127-1 8.2061-1 8.1023-1 8.0010-1 7.9022-1 7.8058-1 7.7118-1
 H, KJ/KG         1178.78  1251.12  1323.47  1395.84  1468.23  1540.64  1613.06  1685.49
 U, KJ/KG         -388.52  -336.81  -285.08  -233.33  -181.56  -129.78  -77.985  -26.175
 G, KJ/KG        -20738.2 -21027.1 -21316.9 -21607.6 -21899.3 -22191.8 -22485.2 -22779.6
 S, KJ/(KG)(K)    57.6764  57.8655  58.0522  58.2366  58.4187  58.5986  58.7763  58.9519

 M, (1/n)           2.016    2.016    2.016    2.016    2.016    2.016    2.016    2.016
 (dLV/dLP)t      -1.00000 -1.00000 -1.00000 -1.00000 -1.00000 -1.00000 -1.00000 -1.00000
 (dLV/dLT)p        1.0000   1.0000   1.0000   1.0000   1.0000   1.0000   1.0000   1.0000
 Cp, KJ/(KG)(K)   14.4644  14.4687  14.4726  14.4762  14.4795  14.4825  14.4852  14.4877
 GAMMAs            1.3989   1.3987   1.3986   1.3984   1.3983   1.3982   1.3981   1.3980
 SON VEL,M/SEC     1480.7   1490.3   1499.9   1509.4   1518.9   1528.3   1537.6   1546.9

 TRANSPORT PROPERTIES (GASES ONLY)
   CONDUCTIVITY IN UNITS OF MILLIWATTS/(CM)(K)

 VISC,MILLIPOISE  0.00054  0.00317  0.01611  0.05365  0.09177  0.10610  0.11003  0.11155

  WITH EQUILIBRIUM REACTIONS

 Cp, KJ/(KG)(K)   14.4644  14.4687  14.4726  14.4762  14.4795  14.4825  14.4852  14.4877
 CONDUCTIVITY      0.0034   0.0200   0.1115   0.5112   1.4020   2.0658   2.2817   2.3439
 PRANDTL NUMBER    2.3303   2.2899   2.0912   1.5191   0.9477   0.7438   0.6985   0.6895

  WITH FROZEN REACTIONS

 Cp, KJ/(KG)(K)   14.4644  14.4687  14.4726  14.4762  14.4795  14.4825  14.4852  14.4877
 CONDUCTIVITY      0.0034   0.0200   0.1115   0.5112   1.4020   2.0658   2.2817   2.3439
 PRANDTL NUMBER    2.3303   2.2899   2.0912   1.5191   0.9477   0.7438   0.6985   0.6895

 MASS FRACTIONS

 *H2              1.00000  1.00000  1.00000  1.00000  1.00000  1.00000  1.00000  1.00000

  * THERMODYNAMIC PROPERTIES FITTED TO 20000.K

 NOTE. WEIGHT FRACTION OF FUEL IN TOTAL FUELS AND OF OXIDANT IN TOTAL OXIDANTS









               THERMODYNAMIC EQUILIBRIUM PROPERTIES AT ASSIGNED

                           TEMPERATURE AND PRESSURE

 CASE =                

             REACTANT                    WT FRACTION      ENERGY      TEMP
                                          (SEE NOTE)     KJ/KG-MOL      K  
 FUEL        H2                           1.0000000         0.000      0.000
 OXIDANT     H2                           1.0000000         0.000      0.000

 O/F=    1.00000  %FUEL= 50.000000  R,EQ.RATIO= 0.000000  PHI,EQ.RATIO=-1.000000

 THERMODYNAMIC PROPERTIES

 P, BAR            13.200   13.200   13.200   13.200   13.200   13.200   14.800   14.800
 T, K              420.00   425.00   430.00   435.00   440.00   445.00   375.00   380.00
 RHO, KG/CU M    7.6200-1 7.5303-1 7.4428-1 7.3572-1 7.2736-1 7.1919-1 9.5688-1 9.4429-1
 H, KJ/KG         1757.93  1830.39  1902.85  1975.33  2047.81  2120.30  1106.47  1178.78
 U, KJ/KG          25.647   77.480   129.32   181.17   233.03   284.90  -440.21  -388.52
 G, KJ/KG        -23074.8 -23370.8 -23667.7 -23965.5 -24264.1 -24563.5 -20273.4 -20558.9
 S, KJ/(KG)(K)    59.1254  59.2969  59.4664  59.6340  59.7997  59.9635  57.0130  57.2045

 M, (1/n)           2.016    2.016    2.016    2.016    2.016    2.016    2.016    2.016
 (dLV/dLP)t      -1.00000 -1.00000 -1.00000 -1.00000 -1.00000 -1.00000 -1.00000 -1.00000
 (dLV/dLT)p        1.0000   1.0000   1.0000   1.0000   1.0000   1.0000   1.0000   1.0000
 Cp, KJ/(KG)(K)   14.4900  14.4920  14.4939  14.4957  14.4973  14.4988  14.4597  14.4644
 GAMMAs            1.3979   1.3978   1.3978   1.3977   1.3976   1.3976   1.3991   1.3989
 SON VEL,M/SEC     1556.1   1565.3   1574.5   1583.6   1592.6   1601.6   1471.0   1480.7

 TRANSPORT PROPERTIES (GASES ONLY)
   CONDUCTIVITY IN UNITS OF MILLIWATTS/(CM)(K)

 VISC,MILLIPOISE  0.11259  0.11352  0.11443  0.11533  0.11623  0.11713  0.00009  0.00054

  WITH EQUILIBRIUM REACTIONS

 Cp, KJ/(KG)(K)   14.4900  14.4920  14.4939  14.4957  14.4973  14.4988  14.4597  14.4644
 CONDUCTIVITY      2.3719   2.3928   2.4123   2.4313   2.4503   2.4692   0.0005   0.0034
 PRANDTL NUMBER    0.6878   0.6875   0.6875   0.6876   0.6877   0.6878   2.3369   2.3303

  WITH FROZEN REACTIONS

 Cp, KJ/(KG)(K)   14.4900  14.4920  14.4939  14.4957  14.4973  14.4988  14.4597  14.4644
 CONDUCTIVITY      2.3719   2.3928   2.4123   2.4313   2.4503   2.4692   0.0005   0.0034
 PRANDTL NUMBER    0.6878   0.6875   0.6875   0.6876   0.6877   0.6878   2.3369   2.3303

 MASS FRACTIONS

 *H2              1.00000  1.00000  1.00000  1.00000  1.00000  1.00000  1.00000  1.00000

  * THERMODYNAMIC PROPERTIES FITTED TO 20000.K

 NOTE. WEIGHT FRACTION OF FUEL IN TOTAL FUELS AND OF OXIDANT IN TOTAL OXIDANTS









               THERMODYNAMIC EQUILIBRIUM PROPERTIES AT ASSIGNED

                           TEMPERATURE AND PRESSURE

 CASE =                

             REACTANT                    WT FRACTION      ENERGY      TEMP
                                          (SEE NOTE)     KJ/KG-MOL      K  
 FUEL        H2                           1.0000000         0.000      0.000
 OXIDANT     H2                           1.0000000         0.000      0.000

 O/F=    1.00000  %FUEL= 50.000000  R,EQ.RATIO= 0.000000  PHI,EQ.RATIO=-1.000000

 THERMODYNAMIC PROPERTIES

 P, BAR            14.800   14.800   14.800   14.800   14.800   14.800   14.800   14.800
 T, K              385.00   390.00   395.00   400.00   405.00   410.00   415.00   420.00
 RHO, KG/CU M    9.3203-1 9.2008-1 9.0844-1 8.9708-1 8.8601-1 8.7520-1 8.6466-1 8.5436-1
 H, KJ/KG         1251.12  1323.47  1395.84  1468.23  1540.64  1613.06  1685.49  1757.93
 U, KJ/KG         -336.81  -285.08  -233.33  -181.56  -129.78  -77.985  -26.175   25.647
 G, KJ/KG        -20845.4 -21132.9 -21421.2 -21710.5 -22000.7 -22291.8 -22583.7 -22876.6
 S, KJ/(KG)(K)    57.3936  57.5803  57.7647  57.9468  58.1267  58.3044  58.4800  58.6536

 M, (1/n)           2.016    2.016    2.016    2.016    2.016    2.016    2.016    2.016
 (dLV/dLP)t      -1.00000 -1.00000 -1.00000 -1.00000 -1.00000 -1.00000 -1.00000 -1.00000
 (dLV/dLT)p        1.0000   1.0000   1.0000   1.0000   1.0000   1.0000   1.0000   1.0000
 Cp, KJ/(KG)(K)   14.4687  14.4726  14.4762  14.4795  14.4825  14.4852  14.4877  14.4900
 GAMMAs            1.3987   1.3986   1.3984   1.3983   1.3982   1.3981   1.3980   1.3979
 SON VEL,M/SEC     1490.3   1499.9   1509.4   1518.9   1528.3   1537.6   1546.9   1556.1

 TRANSPORT PROPERTIES (GASES ONLY)
   CONDUCTIVITY IN UNITS OF MILLIWATTS/(CM)(K)

 VISC,MILLIPOISE  0.00317  0.01611  0.05365  0.09177  0.10610  0.11003  0.11155  0.11259

  WITH EQUILIBRIUM REACTIONS

 Cp, KJ/(KG)(K)   14.4687  14.4726  14.4762  14.4795  14.4825  14.4852  14.4877  14.4900
 CONDUCTIVITY      0.0200   0.1115   0.5112   1.4020   2.0658   2.2817   2.3439   2.3719
 PRANDTL NUMBER    2.2899   2.0912   1.5191   0.9477   0.7438   0.6985   0.6895   0.6878

  WITH FROZEN REACTIONS

 Cp, KJ/(KG)(K)   14.4687  14.4726  14.4762  14.4795  14.4825  14.4852  14.4877  14.4900
 CONDUCTIVITY      0.0200   0.1115   0.5112   1.4020   2.0658   2.2817   2.3439   2.3719
 PRANDTL NUMBER    2.2899   2.0912   1.5191   0.9477   0.7438   0.6985   0.6895   0.6878

 MASS FRACTIONS

 *H2              1.00000  1.00000  1.00000  1.00000  1.00000  1.00000  1.00000  1.00000

  * THERMODYNAMIC PROPERTIES FITTED TO 20000.K

 NOTE. WEIGHT FRACTION OF FUEL IN TOTAL FUELS AND OF OXIDANT IN TOTAL OXIDANTS









               THERMODYNAMIC EQUILIBRIUM PROPERTIES AT ASSIGNED

                           TEMPERATURE AND PRESSURE

 CASE =                

             REACTANT                    WT FRACTION      ENERGY      TEMP
                                          (SEE NOTE)     KJ/KG-MOL      K  
 FUEL        H2                           1.0000000         0.000      0.000
 OXIDANT     H2                           1.0000000         0.000      0.000

 O/F=    1.00000  %FUEL= 50.000000  R,EQ.RATIO= 0.000000  PHI,EQ.RATIO=-1.000000

 THERMODYNAMIC PROPERTIES

 P, BAR            14.800   14.800   14.800   14.800   14.800   16.500   16.500   16.500
 T, K              425.00   430.00   435.00   440.00   445.00   375.00   380.00   385.00
 RHO, KG/CU M    8.4431-1 8.3449-1 8.2490-1 8.1553-1 8.0636-1 1.0668 0 1.0528 0 1.0391 0
 H, KJ/KG         1830.39  1902.85  1975.33  2047.81  2120.30  1106.47  1178.78  1251.12
 U, KJ/KG          77.480   129.32   181.17   233.03   284.90  -440.21  -388.52  -336.81
 G, KJ/KG        -23170.3 -23464.8 -23760.2 -24056.4 -24353.5 -20105.2 -20388.5 -20672.8
 S, KJ/(KG)(K)    58.8250  58.9946  59.1621  59.3278  59.4916  56.5645  56.7560  56.9451

 M, (1/n)           2.016    2.016    2.016    2.016    2.016    2.016    2.016    2.016
 (dLV/dLP)t      -1.00000 -1.00000 -1.00000 -1.00000 -1.00000 -1.00000 -1.00000 -1.00000
 (dLV/dLT)p        1.0000   1.0000   1.0000   1.0000   1.0000   1.0000   1.0000   1.0000
 Cp, KJ/(KG)(K)   14.4920  14.4939  14.4957  14.4973  14.4988  14.4597  14.4644  14.4687
 GAMMAs            1.3978   1.3978   1.3977   1.3976   1.3976   1.3991   1.3989   1.3987
 SON VEL,M/SEC     1565.3   1574.5   1583.6   1592.6   1601.6   1471.0   1480.7   1490.3

 TRANSPORT PROPERTIES (GASES ONLY)
   CONDUCTIVITY IN UNITS OF MILLIWATTS/(CM)(K)

 VISC,MILLIPOISE  0.11352  0.11443  0.11533  0.11623  0.11713  0.00009  0.00054  0.00317

  WITH EQUILIBRIUM REACTIONS

 Cp, KJ/(KG)(K)   14.4920  14.4939  14.4957  14.4973  14.4988  14.4597  14.4644  14.4687
 CONDUCTIVITY      2.3928   2.4123   2.4313   2.4503   2.4692   0.0005   0.0034   0.0200
 PRANDTL NUMBER    0.6875   0.6875   0.6876   0.6877   0.6878   2.3369   2.3303   2.2899

  WITH FROZEN REACTIONS

 Cp, KJ/(KG)(K)   14.4920  14.4939  14.4957  14.4973  14.4988  14.4597  14.4644  14.4687
 CONDUCTIVITY      2.3928   2.4123   2.4313   2.4503   2.4692   0.0005   0.0034   0.0200
 PRANDTL NUMBER    0.6875   0.6875   0.6876   0.6877   0.6878   2.3369   2.3303   2.2899

 MASS FRACTIONS

 *H2              1.00000  1.00000  1.00000  1.00000  1.00000  1.00000  1.00000  1.00000

  * THERMODYNAMIC PROPERTIES FITTED TO 20000.K

 NOTE. WEIGHT FRACTION OF FUEL IN TOTAL FUELS AND OF OXIDANT IN TOTAL OXIDANTS









               THERMODYNAMIC EQUILIBRIUM PROPERTIES AT ASSIGNED

                           TEMPERATURE AND PRESSURE

 CASE =                

             REACTANT                    WT FRACTION      ENERGY      TEMP
                                          (SEE NOTE)     KJ/KG-MOL      K  
 FUEL        H2                           1.0000000         0.000      0.000
 OXIDANT     H2                           1.0000000         0.000      0.000

 O/F=    1.00000  %FUEL= 50.000000  R,EQ.RATIO= 0.000000  PHI,EQ.RATIO=-1.000000

 THERMODYNAMIC PROPERTIES

 P, BAR            16.500   16.500   16.500   16.500   16.500   16.500   16.500   16.500
 T, K              390.00   395.00   400.00   405.00   410.00   415.00   420.00   425.00
 RHO, KG/CU M    1.0258 0 1.0128 0 1.0001 0 9.8778-1 9.7573-1 9.6397-1 9.5250-1 9.4129-1
 H, KJ/KG         1323.47  1395.84  1468.23  1540.64  1613.06  1685.49  1757.93  1830.39
 U, KJ/KG         -285.08  -233.33  -181.56  -129.78  -77.985  -26.175   25.647   77.480
 G, KJ/KG        -20958.0 -21244.1 -21531.1 -21819.1 -22107.9 -22397.6 -22688.2 -22979.7
 S, KJ/(KG)(K)    57.1319  57.3162  57.4984  57.6782  57.8560  58.0316  58.2051  58.3766

 M, (1/n)           2.016    2.016    2.016    2.016    2.016    2.016    2.016    2.016
 (dLV/dLP)t      -1.00000 -1.00000 -1.00000 -1.00000 -1.00000 -1.00000 -1.00000 -1.00000
 (dLV/dLT)p        1.0000   1.0000   1.0000   1.0000   1.0000   1.0000   1.0000   1.0000
 Cp, KJ/(KG)(K)   14.4726  14.4762  14.4795  14.4825  14.4852  14.4877  14.4900  14.4920
 GAMMAs            1.3986   1.3984   1.3983   1.3982   1.3981   1.3980   1.3979   1.3978
 SON VEL,M/SEC     1499.9   1509.4   1518.9   1528.3   1537.6   1546.9   1556.1   1565.3

 TRANSPORT PROPERTIES (GASES ONLY)
   CONDUCTIVITY IN UNITS OF MILLIWATTS/(CM)(K)

 VISC,MILLIPOISE  0.01611  0.05365  0.09177  0.10610  0.11003  0.11155  0.11259  0.11352

  WITH EQUILIBRIUM REACTIONS

 Cp, KJ/(KG)(K)   14.4726  14.4762  14.4795  14.4825  14.4852  14.4877  14.4900  14.4920
 CONDUCTIVITY      0.1115   0.5112   1.4020   2.0658   2.2817   2.3439   2.3719   2.3928
 PRANDTL NUMBER    2.0912   1.5191   0.9477   0.7438   0.6985   0.6895   0.6878   0.6875

  WITH FROZEN REACTIONS

 Cp, KJ/(KG)(K)   14.4726  14.4762  14.4795  14.4825  14.4852  14.4877  14.4900  14.4920
 CONDUCTIVITY      0.1115   0.5112   1.4020   2.0658   2.2817   2.3439   2.3719   2.3928
 PRANDTL NUMBER    2.0912   1.5191   0.9477   0.7438   0.6985   0.6895   0.6878   0.6875

 MASS FRACTIONS

 *H2              1.00000  1.00000  1.00000  1.00000  1.00000  1.00000  1.00000  1.00000

  * THERMODYNAMIC PROPERTIES FITTED TO 20000.K

 NOTE. WEIGHT FRACTION OF FUEL IN TOTAL FUELS AND OF OXIDANT IN TOTAL OXIDANTS









               THERMODYNAMIC EQUILIBRIUM PROPERTIES AT ASSIGNED

                           TEMPERATURE AND PRESSURE

 CASE =                

             REACTANT                    WT FRACTION      ENERGY      TEMP
                                          (SEE NOTE)     KJ/KG-MOL      K  
 FUEL        H2                           1.0000000         0.000      0.000
 OXIDANT     H2                           1.0000000         0.000      0.000

 O/F=    1.00000  %FUEL= 50.000000  R,EQ.RATIO= 0.000000  PHI,EQ.RATIO=-1.000000

 THERMODYNAMIC PROPERTIES

 P, BAR            16.500   16.500   16.500   16.500   18.000   18.000   18.000   18.000
 T, K              430.00   435.00   440.00   445.00   375.00   380.00   385.00   390.00
 RHO, KG/CU M    9.3035-1 9.1965-1 9.0920-1 8.9899-1 1.1638 0 1.1485 0 1.1336 0 1.1190 0
 H, KJ/KG         1902.85  1975.33  2047.81  2120.30  1106.47  1178.78  1251.12  1323.47
 U, KJ/KG          129.32   181.17   233.03   284.90  -440.21  -388.52  -336.81  -285.08
 G, KJ/KG        -23272.0 -23565.1 -23859.1 -24153.9 -19970.6 -20252.1 -20534.6 -20818.0
 S, KJ/(KG)(K)    58.5461  58.7137  58.8793  59.0432  56.2056  56.3972  56.5863  56.7730

 M, (1/n)           2.016    2.016    2.016    2.016    2.016    2.016    2.016    2.016
 (dLV/dLP)t      -1.00000 -1.00000 -1.00000 -1.00000 -1.00000 -1.00000 -1.00000 -1.00000
 (dLV/dLT)p        1.0000   1.0000   1.0000   1.0000   1.0000   1.0000   1.0000   1.0000
 Cp, KJ/(KG)(K)   14.4939  14.4957  14.4973  14.4988  14.4597  14.4644  14.4687  14.4726
 GAMMAs            1.3978   1.3977   1.3976   1.3976   1.3991   1.3989   1.3987   1.3986
 SON VEL,M/SEC     1574.5   1583.6   1592.6   1601.6   1471.0   1480.7   1490.3   1499.9

 TRANSPORT PROPERTIES (GASES ONLY)
   CONDUCTIVITY IN UNITS OF MILLIWATTS/(CM)(K)

 VISC,MILLIPOISE  0.11443  0.11533  0.11623  0.11713  0.00009  0.00054  0.00317  0.01611

  WITH EQUILIBRIUM REACTIONS

 Cp, KJ/(KG)(K)   14.4939  14.4957  14.4973  14.4988  14.4597  14.4644  14.4687  14.4726
 CONDUCTIVITY      2.4123   2.4313   2.4503   2.4692   0.0005   0.0034   0.0200   0.1115
 PRANDTL NUMBER    0.6875   0.6876   0.6877   0.6878   2.3369   2.3303   2.2899   2.0912

  WITH FROZEN REACTIONS

 Cp, KJ/(KG)(K)   14.4939  14.4957  14.4973  14.4988  14.4597  14.4644  14.4687  14.4726
 CONDUCTIVITY      2.4123   2.4313   2.4503   2.4692   0.0005   0.0034   0.0200   0.1115
 PRANDTL NUMBER    0.6875   0.6876   0.6877   0.6878   2.3369   2.3303   2.2899   2.0912

 MASS FRACTIONS

 *H2              1.00000  1.00000  1.00000  1.00000  1.00000  1.00000  1.00000  1.00000

  * THERMODYNAMIC PROPERTIES FITTED TO 20000.K

 NOTE. WEIGHT FRACTION OF FUEL IN TOTAL FUELS AND OF OXIDANT IN TOTAL OXIDANTS









               THERMODYNAMIC EQUILIBRIUM PROPERTIES AT ASSIGNED

                           TEMPERATURE AND PRESSURE

 CASE =                

             REACTANT                    WT FRACTION      ENERGY      TEMP
                                          (SEE NOTE)     KJ/KG-MOL      K  
 FUEL        H2                           1.0000000         0.000      0.000
 OXIDANT     H2                           1.0000000         0.000      0.000

 O/F=    1.00000  %FUEL= 50.000000  R,EQ.RATIO= 0.000000  PHI,EQ.RATIO=-1.000000

 THERMODYNAMIC PROPERTIES

 P, BAR            18.000   18.000   18.000   18.000   18.000   18.000   18.000   18.000
 T, K              395.00   400.00   405.00   410.00   415.00   420.00   425.00   430.00
 RHO, KG/CU M    1.1049 0 1.0910 0 1.0776 0 1.0644 0 1.0516 0 1.0391 0 1.0269 0 1.0149 0
 H, KJ/KG         1395.84  1468.23  1540.64  1613.06  1685.49  1757.93  1830.39  1902.85
 U, KJ/KG         -233.33  -181.56  -129.78  -77.985  -26.175   25.647   77.480   129.32
 G, KJ/KG        -21102.3 -21387.6 -21673.7 -21960.7 -22248.7 -22537.5 -22827.1 -23117.6
 S, KJ/(KG)(K)    56.9574  57.1395  57.3194  57.4971  57.6727  57.8462  58.0177  58.1872

 M, (1/n)           2.016    2.016    2.016    2.016    2.016    2.016    2.016    2.016
 (dLV/dLP)t      -1.00000 -1.00000 -1.00000 -1.00000 -1.00000 -1.00000 -1.00000 -1.00000
 (dLV/dLT)p        1.0000   1.0000   1.0000   1.0000   1.0000   1.0000   1.0000   1.0000
 Cp, KJ/(KG)(K)   14.4762  14.4795  14.4825  14.4852  14.4877  14.4900  14.4920  14.4939
 GAMMAs            1.3984   1.3983   1.3982   1.3981   1.3980   1.3979   1.3978   1.3978
 SON VEL,M/SEC     1509.4   1518.9   1528.3   1537.6   1546.9   1556.1   1565.3   1574.5

 TRANSPORT PROPERTIES (GASES ONLY)
   CONDUCTIVITY IN UNITS OF MILLIWATTS/(CM)(K)

 VISC,MILLIPOISE  0.05365  0.09177  0.10610  0.11003  0.11155  0.11259  0.11352  0.11443

  WITH EQUILIBRIUM REACTIONS

 Cp, KJ/(KG)(K)   14.4762  14.4795  14.4825  14.4852  14.4877  14.4900  14.4920  14.4939
 CONDUCTIVITY      0.5112   1.4020   2.0658   2.2817   2.3439   2.3719   2.3928   2.4123
 PRANDTL NUMBER    1.5191   0.9477   0.7438   0.6985   0.6895   0.6878   0.6875   0.6875

  WITH FROZEN REACTIONS

 Cp, KJ/(KG)(K)   14.4762  14.4795  14.4825  14.4852  14.4877  14.4900  14.4920  14.4939
 CONDUCTIVITY      0.5112   1.4020   2.0658   2.2817   2.3439   2.3719   2.3928   2.4123
 PRANDTL NUMBER    1.5191   0.9477   0.7438   0.6985   0.6895   0.6878   0.6875   0.6875

 MASS FRACTIONS

 *H2              1.00000  1.00000  1.00000  1.00000  1.00000  1.00000  1.00000  1.00000

  * THERMODYNAMIC PROPERTIES FITTED TO 20000.K

 NOTE. WEIGHT FRACTION OF FUEL IN TOTAL FUELS AND OF OXIDANT IN TOTAL OXIDANTS









               THERMODYNAMIC EQUILIBRIUM PROPERTIES AT ASSIGNED

                           TEMPERATURE AND PRESSURE

 CASE =                

             REACTANT                    WT FRACTION      ENERGY      TEMP
                                          (SEE NOTE)     KJ/KG-MOL      K  
 FUEL        H2                           1.0000000         0.000      0.000
 OXIDANT     H2                           1.0000000         0.000      0.000

 O/F=    1.00000  %FUEL= 50.000000  R,EQ.RATIO= 0.000000  PHI,EQ.RATIO=-1.000000

 THERMODYNAMIC PROPERTIES

 P, BAR            18.000   18.000   18.000   20.000   20.000   20.000   20.000   20.000
 T, K              435.00   440.00   445.00   375.00   380.00   385.00   390.00   395.00
 RHO, KG/CU M    1.0033 0 9.9186-1 9.8071-1 1.2931 0 1.2761 0 1.2595 0 1.2434 0 1.2276 0
 H, KJ/KG         1975.33  2047.81  2120.30  1106.47  1178.78  1251.12  1323.47  1395.84
 U, KJ/KG          181.17   233.03   284.90  -440.21  -388.52  -336.81  -285.08  -233.33
 G, KJ/KG        -23409.0 -23701.2 -23994.2 -19807.7 -20087.0 -20367.3 -20648.5 -20930.7
 S, KJ/(KG)(K)    58.3548  58.5205  58.6843  55.7711  55.9626  56.1517  56.3384  56.5228

 M, (1/n)           2.016    2.016    2.016    2.016    2.016    2.016    2.016    2.016
 (dLV/dLP)t      -1.00000 -1.00000 -1.00000 -1.00000 -1.00000 -1.00000 -1.00000 -1.00000
 (dLV/dLT)p        1.0000   1.0000   1.0000   1.0000   1.0000   1.0000   1.0000   1.0000
 Cp, KJ/(KG)(K)   14.4957  14.4973  14.4988  14.4597  14.4644  14.4687  14.4726  14.4762
 GAMMAs            1.3977   1.3976   1.3976   1.3991   1.3989   1.3987   1.3986   1.3984
 SON VEL,M/SEC     1583.6   1592.6   1601.6   1471.0   1480.7   1490.3   1499.9   1509.4

 TRANSPORT PROPERTIES (GASES ONLY)
   CONDUCTIVITY IN UNITS OF MILLIWATTS/(CM)(K)

 VISC,MILLIPOISE  0.11533  0.11623  0.11713  0.00009  0.00054  0.00317  0.01611  0.05365

  WITH EQUILIBRIUM REACTIONS

 Cp, KJ/(KG)(K)   14.4957  14.4973  14.4988  14.4597  14.4644  14.4687  14.4726  14.4762
 CONDUCTIVITY      2.4313   2.4503   2.4692   0.0005   0.0034   0.0200   0.1115   0.5112
 PRANDTL NUMBER    0.6876   0.6877   0.6878   2.3369   2.3303   2.2899   2.0912   1.5191

  WITH FROZEN REACTIONS

 Cp, KJ/(KG)(K)   14.4957  14.4973  14.4988  14.4597  14.4644  14.4687  14.4726  14.4762
 CONDUCTIVITY      2.4313   2.4503   2.4692   0.0005   0.0034   0.0200   0.1115   0.5112
 PRANDTL NUMBER    0.6876   0.6877   0.6878   2.3369   2.3303   2.2899   2.0912   1.5191

 MASS FRACTIONS

 *H2              1.00000  1.00000  1.00000  1.00000  1.00000  1.00000  1.00000  1.00000

  * THERMODYNAMIC PROPERTIES FITTED TO 20000.K

 NOTE. WEIGHT FRACTION OF FUEL IN TOTAL FUELS AND OF OXIDANT IN TOTAL OXIDANTS









               THERMODYNAMIC EQUILIBRIUM PROPERTIES AT ASSIGNED

                           TEMPERATURE AND PRESSURE

 CASE =                

             REACTANT                    WT FRACTION      ENERGY      TEMP
                                          (SEE NOTE)     KJ/KG-MOL      K  
 FUEL        H2                           1.0000000         0.000      0.000
 OXIDANT     H2                           1.0000000         0.000      0.000

 O/F=    1.00000  %FUEL= 50.000000  R,EQ.RATIO= 0.000000  PHI,EQ.RATIO=-1.000000

 THERMODYNAMIC PROPERTIES

 P, BAR            20.000   20.000   20.000   20.000   20.000   20.000   20.000   20.000
 T, K              400.00   405.00   410.00   415.00   420.00   425.00   430.00   435.00
 RHO, KG/CU M    1.2123 0 1.1973 0 1.1827 0 1.1685 0 1.1545 0 1.1410 0 1.1277 0 1.1147 0
 H, KJ/KG         1468.23  1540.64  1613.06  1685.49  1757.93  1830.39  1902.85  1975.33
 U, KJ/KG         -181.56  -129.78  -77.985  -26.175   25.647   77.480   129.32   181.17
 G, KJ/KG        -21213.7 -21497.7 -21782.6 -22068.3 -22355.0 -22642.4 -22930.8 -23220.0
 S, KJ/(KG)(K)    56.7049  56.8848  57.0625  57.2381  57.4116  57.5831  57.7526  57.9202

 M, (1/n)           2.016    2.016    2.016    2.016    2.016    2.016    2.016    2.016
 (dLV/dLP)t      -1.00000 -1.00000 -1.00000 -1.00000 -1.00000 -1.00000 -1.00000 -1.00000
 (dLV/dLT)p        1.0000   1.0000   1.0000   1.0000   1.0000   1.0000   1.0000   1.0000
 Cp, KJ/(KG)(K)   14.4795  14.4825  14.4852  14.4877  14.4900  14.4920  14.4939  14.4957
 GAMMAs            1.3983   1.3982   1.3981   1.3980   1.3979   1.3978   1.3978   1.3977
 SON VEL,M/SEC     1518.9   1528.3   1537.6   1546.9   1556.1   1565.3   1574.5   1583.6

 TRANSPORT PROPERTIES (GASES ONLY)
   CONDUCTIVITY IN UNITS OF MILLIWATTS/(CM)(K)

 VISC,MILLIPOISE  0.09177  0.10610  0.11003  0.11155  0.11259  0.11352  0.11443  0.11533

  WITH EQUILIBRIUM REACTIONS

 Cp, KJ/(KG)(K)   14.4795  14.4825  14.4852  14.4877  14.4900  14.4920  14.4939  14.4957
 CONDUCTIVITY      1.4020   2.0658   2.2817   2.3439   2.3719   2.3928   2.4123   2.4313
 PRANDTL NUMBER    0.9477   0.7438   0.6985   0.6895   0.6878   0.6875   0.6875   0.6876

  WITH FROZEN REACTIONS

 Cp, KJ/(KG)(K)   14.4795  14.4825  14.4852  14.4877  14.4900  14.4920  14.4939  14.4957
 CONDUCTIVITY      1.4020   2.0658   2.2817   2.3439   2.3719   2.3928   2.4123   2.4313
 PRANDTL NUMBER    0.9477   0.7438   0.6985   0.6895   0.6878   0.6875   0.6875   0.6876

 MASS FRACTIONS

 *H2              1.00000  1.00000  1.00000  1.00000  1.00000  1.00000  1.00000  1.00000

  * THERMODYNAMIC PROPERTIES FITTED TO 20000.K

 NOTE. WEIGHT FRACTION OF FUEL IN TOTAL FUELS AND OF OXIDANT IN TOTAL OXIDANTS









               THERMODYNAMIC EQUILIBRIUM PROPERTIES AT ASSIGNED

                           TEMPERATURE AND PRESSURE

 CASE =                

             REACTANT                    WT FRACTION      ENERGY      TEMP
                                          (SEE NOTE)     KJ/KG-MOL      K  
 FUEL        H2                           1.0000000         0.000      0.000
 OXIDANT     H2                           1.0000000         0.000      0.000

 O/F=    1.00000  %FUEL= 50.000000  R,EQ.RATIO= 0.000000  PHI,EQ.RATIO=-1.000000

 THERMODYNAMIC PROPERTIES

 P, BAR            20.000   20.000   22.500   22.500   22.500   22.500   22.500   22.500
 T, K              440.00   445.00   375.00   380.00   385.00   390.00   395.00   400.00
 RHO, KG/CU M    1.1021 0 1.0897 0 1.4547 0 1.4356 0 1.4169 0 1.3988 0 1.3811 0 1.3638 0
 H, KJ/KG         2047.81  2120.30  1106.47  1178.78  1251.12  1323.47  1395.84  1468.23
 U, KJ/KG          233.03   284.90  -440.21  -388.52  -336.81  -285.08  -233.33  -181.56
 G, KJ/KG        -23510.0 -23800.8 -19625.5 -19902.4 -20180.3 -20459.1 -20738.8 -21019.4
 S, KJ/(KG)(K)    58.0859  58.2497  55.2853  55.4768  55.6659  55.8526  56.0370  56.2191

 M, (1/n)           2.016    2.016    2.016    2.016    2.016    2.016    2.016    2.016
 (dLV/dLP)t      -1.00000 -1.00000 -1.00000 -1.00000 -1.00000 -1.00000 -1.00000 -1.00000
 (dLV/dLT)p        1.0000   1.0000   1.0000   1.0000   1.0000   1.0000   1.0000   1.0000
 Cp, KJ/(KG)(K)   14.4973  14.4988  14.4597  14.4644  14.4687  14.4726  14.4762  14.4795
 GAMMAs            1.3976   1.3976   1.3991   1.3989   1.3987   1.3986   1.3984   1.3983
 SON VEL,M/SEC     1592.6   1601.6   1471.0   1480.7   1490.3   1499.9   1509.4   1518.9

 TRANSPORT PROPERTIES (GASES ONLY)
   CONDUCTIVITY IN UNITS OF MILLIWATTS/(CM)(K)

 VISC,MILLIPOISE  0.11623  0.11713  0.00009  0.00054  0.00317  0.01611  0.05365  0.09177

  WITH EQUILIBRIUM REACTIONS

 Cp, KJ/(KG)(K)   14.4973  14.4988  14.4597  14.4644  14.4687  14.4726  14.4762  14.4795
 CONDUCTIVITY      2.4503   2.4692   0.0005   0.0034   0.0200   0.1115   0.5112   1.4020
 PRANDTL NUMBER    0.6877   0.6878   2.3369   2.3303   2.2899   2.0912   1.5191   0.9477

  WITH FROZEN REACTIONS

 Cp, KJ/(KG)(K)   14.4973  14.4988  14.4597  14.4644  14.4687  14.4726  14.4762  14.4795
 CONDUCTIVITY      2.4503   2.4692   0.0005   0.0034   0.0200   0.1115   0.5112   1.4020
 PRANDTL NUMBER    0.6877   0.6878   2.3369   2.3303   2.2899   2.0912   1.5191   0.9477

 MASS FRACTIONS

 *H2              1.00000  1.00000  1.00000  1.00000  1.00000  1.00000  1.00000  1.00000

  * THERMODYNAMIC PROPERTIES FITTED TO 20000.K

 NOTE. WEIGHT FRACTION OF FUEL IN TOTAL FUELS AND OF OXIDANT IN TOTAL OXIDANTS









               THERMODYNAMIC EQUILIBRIUM PROPERTIES AT ASSIGNED

                           TEMPERATURE AND PRESSURE

 CASE =                

             REACTANT                    WT FRACTION      ENERGY      TEMP
                                          (SEE NOTE)     KJ/KG-MOL      K  
 FUEL        H2                           1.0000000         0.000      0.000
 OXIDANT     H2                           1.0000000         0.000      0.000

 O/F=    1.00000  %FUEL= 50.000000  R,EQ.RATIO= 0.000000  PHI,EQ.RATIO=-1.000000

 THERMODYNAMIC PROPERTIES

 P, BAR            22.500   22.500   22.500   22.500   22.500   22.500   22.500   22.500
 T, K              405.00   410.00   415.00   420.00   425.00   430.00   435.00   440.00
 RHO, KG/CU M    1.3470 0 1.3305 0 1.3145 0 1.2989 0 1.2836 0 1.2687 0 1.2541 0 1.2398 0
 H, KJ/KG         1540.64  1613.06  1685.49  1757.93  1830.39  1902.85  1975.33  2047.81
 U, KJ/KG         -129.78  -77.985  -26.175   25.647   77.480   129.32   181.17   233.03
 G, KJ/KG        -21301.0 -21583.4 -21866.7 -22150.9 -22436.0 -22721.9 -23008.6 -23296.2
 S, KJ/(KG)(K)    56.3990  56.5767  56.7523  56.9258  57.0973  57.2669  57.4344  57.6001

 M, (1/n)           2.016    2.016    2.016    2.016    2.016    2.016    2.016    2.016
 (dLV/dLP)t      -1.00000 -1.00000 -1.00000 -1.00000 -1.00000 -1.00000 -1.00000 -1.00000
 (dLV/dLT)p        1.0000   1.0000   1.0000   1.0000   1.0000   1.0000   1.0000   1.0000
 Cp, KJ/(KG)(K)   14.4825  14.4852  14.4877  14.4900  14.4920  14.4939  14.4957  14.4973
 GAMMAs            1.3982   1.3981   1.3980   1.3979   1.3978   1.3978   1.3977   1.3976
 SON VEL,M/SEC     1528.3   1537.6   1546.9   1556.1   1565.3   1574.5   1583.6   1592.6

 TRANSPORT PROPERTIES (GASES ONLY)
   CONDUCTIVITY IN UNITS OF MILLIWATTS/(CM)(K)

 VISC,MILLIPOISE  0.10610  0.11003  0.11155  0.11259  0.11352  0.11443  0.11533  0.11623

  WITH EQUILIBRIUM REACTIONS

 Cp, KJ/(KG)(K)   14.4825  14.4852  14.4877  14.4900  14.4920  14.4939  14.4957  14.4973
 CONDUCTIVITY      2.0658   2.2817   2.3439   2.3719   2.3928   2.4123   2.4313   2.4503
 PRANDTL NUMBER    0.7438   0.6985   0.6895   0.6878   0.6875   0.6875   0.6876   0.6877

  WITH FROZEN REACTIONS

 Cp, KJ/(KG)(K)   14.4825  14.4852  14.4877  14.4900  14.4920  14.4939  14.4957  14.4973
 CONDUCTIVITY      2.0658   2.2817   2.3439   2.3719   2.3928   2.4123   2.4313   2.4503
 PRANDTL NUMBER    0.7438   0.6985   0.6895   0.6878   0.6875   0.6875   0.6876   0.6877

 MASS FRACTIONS

 *H2              1.00000  1.00000  1.00000  1.00000  1.00000  1.00000  1.00000  1.00000

  * THERMODYNAMIC PROPERTIES FITTED TO 20000.K

 NOTE. WEIGHT FRACTION OF FUEL IN TOTAL FUELS AND OF OXIDANT IN TOTAL OXIDANTS









               THERMODYNAMIC EQUILIBRIUM PROPERTIES AT ASSIGNED

                           TEMPERATURE AND PRESSURE

 CASE =                

             REACTANT                    WT FRACTION      ENERGY      TEMP
                                          (SEE NOTE)     KJ/KG-MOL      K  
 FUEL        H2                           1.0000000         0.000      0.000
 OXIDANT     H2                           1.0000000         0.000      0.000

 O/F=    1.00000  %FUEL= 50.000000  R,EQ.RATIO= 0.000000  PHI,EQ.RATIO=-1.000000

 THERMODYNAMIC PROPERTIES

 P, BAR            22.500   25.000   25.000   25.000   25.000   25.000   25.000   25.000
 T, K              445.00   375.00   380.00   385.00   390.00   395.00   400.00   405.00
 RHO, KG/CU M    1.2259 0 1.6164 0 1.5951 0 1.5744 0 1.5542 0 1.5345 0 1.5153 0 1.4966 0
 H, KJ/KG         2120.30  1106.47  1178.78  1251.12  1323.47  1395.84  1468.23  1540.64
 U, KJ/KG          284.90  -440.21  -388.52  -336.81  -285.08  -233.33  -181.56  -129.78
 G, KJ/KG        -23584.6 -19462.5 -19737.3 -20013.0 -20289.6 -20567.1 -20845.6 -21125.0
 S, KJ/(KG)(K)    57.7639  54.8507  55.0422  55.2313  55.4181  55.6024  55.7846  55.9645

 M, (1/n)           2.016    2.016    2.016    2.016    2.016    2.016    2.016    2.016
 (dLV/dLP)t      -1.00000 -1.00000 -1.00000 -1.00000 -1.00000 -1.00000 -1.00000 -1.00000
 (dLV/dLT)p        1.0000   1.0000   1.0000   1.0000   1.0000   1.0000   1.0000   1.0000
 Cp, KJ/(KG)(K)   14.4988  14.4597  14.4644  14.4687  14.4726  14.4762  14.4795  14.4825
 GAMMAs            1.3976   1.3991   1.3989   1.3987   1.3986   1.3984   1.3983   1.3982
 SON VEL,M/SEC     1601.6   1471.0   1480.7   1490.3   1499.9   1509.4   1518.9   1528.3

 TRANSPORT PROPERTIES (GASES ONLY)
   CONDUCTIVITY IN UNITS OF MILLIWATTS/(CM)(K)

 VISC,MILLIPOISE  0.11713  0.00009  0.00054  0.00317  0.01611  0.05365  0.09177  0.10610

  WITH EQUILIBRIUM REACTIONS

 Cp, KJ/(KG)(K)   14.4988  14.4597  14.4644  14.4687  14.4726  14.4762  14.4795  14.4825
 CONDUCTIVITY      2.4692   0.0005   0.0034   0.0200   0.1115   0.5112   1.4020   2.0658
 PRANDTL NUMBER    0.6878   2.3369   2.3303   2.2899   2.0912   1.5191   0.9477   0.7438

  WITH FROZEN REACTIONS

 Cp, KJ/(KG)(K)   14.4988  14.4597  14.4644  14.4687  14.4726  14.4762  14.4795  14.4825
 CONDUCTIVITY      2.4692   0.0005   0.0034   0.0200   0.1115   0.5112   1.4020   2.0658
 PRANDTL NUMBER    0.6878   2.3369   2.3303   2.2899   2.0912   1.5191   0.9477   0.7438

 MASS FRACTIONS

 *H2              1.00000  1.00000  1.00000  1.00000  1.00000  1.00000  1.00000  1.00000

  * THERMODYNAMIC PROPERTIES FITTED TO 20000.K

 NOTE. WEIGHT FRACTION OF FUEL IN TOTAL FUELS AND OF OXIDANT IN TOTAL OXIDANTS









               THERMODYNAMIC EQUILIBRIUM PROPERTIES AT ASSIGNED

                           TEMPERATURE AND PRESSURE

 CASE =                

             REACTANT                    WT FRACTION      ENERGY      TEMP
                                          (SEE NOTE)     KJ/KG-MOL      K  
 FUEL        H2                           1.0000000         0.000      0.000
 OXIDANT     H2                           1.0000000         0.000      0.000

 O/F=    1.00000  %FUEL= 50.000000  R,EQ.RATIO= 0.000000  PHI,EQ.RATIO=-1.000000

 THERMODYNAMIC PROPERTIES

 P, BAR            25.000   25.000   25.000   25.000   25.000   25.000   25.000   25.000
 T, K              410.00   415.00   420.00   425.00   430.00   435.00   440.00   445.00
 RHO, KG/CU M    1.4784 0 1.4606 0 1.4432 0 1.4262 0 1.4096 0 1.3934 0 1.3776 0 1.3621 0
 H, KJ/KG         1613.06  1685.49  1757.93  1830.39  1902.85  1975.33  2047.81  2120.30
 U, KJ/KG         -77.985  -26.175   25.647   77.480   129.32   181.17   233.03   284.90
 G, KJ/KG        -21405.2 -21686.4 -21968.4 -22251.3 -22535.0 -22819.6 -23105.0 -23391.3
 S, KJ/(KG)(K)    56.1422  56.3178  56.4913  56.6628  56.8323  56.9999  57.1655  57.3294

 M, (1/n)           2.016    2.016    2.016    2.016    2.016    2.016    2.016    2.016
 (dLV/dLP)t      -1.00000 -1.00000 -1.00000 -1.00000 -1.00000 -1.00000 -1.00000 -1.00000
 (dLV/dLT)p        1.0000   1.0000   1.0000   1.0000   1.0000   1.0000   1.0000   1.0000
 Cp, KJ/(KG)(K)   14.4852  14.4877  14.4900  14.4920  14.4939  14.4957  14.4973  14.4988
 GAMMAs            1.3981   1.3980   1.3979   1.3978   1.3978   1.3977   1.3976   1.3976
 SON VEL,M/SEC     1537.6   1546.9   1556.1   1565.3   1574.5   1583.6   1592.6   1601.6

 TRANSPORT PROPERTIES (GASES ONLY)
   CONDUCTIVITY IN UNITS OF MILLIWATTS/(CM)(K)

 VISC,MILLIPOISE  0.11003  0.11155  0.11259  0.11352  0.11443  0.11533  0.11623  0.11713

  WITH EQUILIBRIUM REACTIONS

 Cp, KJ/(KG)(K)   14.4852  14.4877  14.4900  14.4920  14.4939  14.4957  14.4973  14.4988
 CONDUCTIVITY      2.2817   2.3439   2.3719   2.3928   2.4123   2.4313   2.4503   2.4692
 PRANDTL NUMBER    0.6985   0.6895   0.6878   0.6875   0.6875   0.6876   0.6877   0.6878

  WITH FROZEN REACTIONS

 Cp, KJ/(KG)(K)   14.4852  14.4877  14.4900  14.4920  14.4939  14.4957  14.4973  14.4988
 CONDUCTIVITY      2.2817   2.3439   2.3719   2.3928   2.4123   2.4313   2.4503   2.4692
 PRANDTL NUMBER    0.6985   0.6895   0.6878   0.6875   0.6875   0.6876   0.6877   0.6878

 MASS FRACTIONS

 *H2              1.00000  1.00000  1.00000  1.00000  1.00000  1.00000  1.00000  1.00000

  * THERMODYNAMIC PROPERTIES FITTED TO 20000.K

 NOTE. WEIGHT FRACTION OF FUEL IN TOTAL FUELS AND OF OXIDANT IN TOTAL OXIDANTS









               THERMODYNAMIC EQUILIBRIUM PROPERTIES AT ASSIGNED

                           TEMPERATURE AND PRESSURE

 CASE =                

             REACTANT                    WT FRACTION      ENERGY      TEMP
                                          (SEE NOTE)     KJ/KG-MOL      K  
 FUEL        H2                           1.0000000         0.000      0.000
 OXIDANT     H2                           1.0000000         0.000      0.000

 O/F=    1.00000  %FUEL= 50.000000  R,EQ.RATIO= 0.000000  PHI,EQ.RATIO=-1.000000

 THERMODYNAMIC PROPERTIES

 P, BAR            28.000   28.000   28.000   28.000   28.000   28.000   28.000   28.000
 T, K              375.00   380.00   385.00   390.00   395.00   400.00   405.00   410.00
 RHO, KG/CU M    1.8103 0 1.7865 0 1.7633 0 1.7407 0 1.7187 0 1.6972 0 1.6762 0 1.6558 0
 H, KJ/KG         1106.47  1178.78  1251.12  1323.47  1395.84  1468.23  1540.64  1613.06
 U, KJ/KG         -440.21  -388.52  -336.81  -285.08  -233.33  -181.56  -129.78  -77.985
 G, KJ/KG        -19287.3 -19559.6 -19833.0 -20107.3 -20382.5 -20658.6 -20935.7 -21213.6
 S, KJ/(KG)(K)    54.3833  54.5748  54.7639  54.9506  55.1350  55.3171  55.4970  55.6747

 M, (1/n)           2.016    2.016    2.016    2.016    2.016    2.016    2.016    2.016
 (dLV/dLP)t      -1.00000 -1.00000 -1.00000 -1.00000 -1.00000 -1.00000 -1.00000 -1.00000
 (dLV/dLT)p        1.0000   1.0000   1.0000   1.0000   1.0000   1.0000   1.0000   1.0000
 Cp, KJ/(KG)(K)   14.4597  14.4644  14.4687  14.4726  14.4762  14.4795  14.4825  14.4852
 GAMMAs            1.3991   1.3989   1.3987   1.3986   1.3984   1.3983   1.3982   1.3981
 SON VEL,M/SEC     1471.0   1480.7   1490.3   1499.9   1509.4   1518.9   1528.3   1537.6

 TRANSPORT PROPERTIES (GASES ONLY)
   CONDUCTIVITY IN UNITS OF MILLIWATTS/(CM)(K)

 VISC,MILLIPOISE  0.00009  0.00054  0.00317  0.01611  0.05365  0.09177  0.10610  0.11003

  WITH EQUILIBRIUM REACTIONS

 Cp, KJ/(KG)(K)   14.4597  14.4644  14.4687  14.4726  14.4762  14.4795  14.4825  14.4852
 CONDUCTIVITY      0.0005   0.0034   0.0200   0.1115   0.5112   1.4020   2.0658   2.2817
 PRANDTL NUMBER    2.3369   2.3303   2.2899   2.0912   1.5191   0.9477   0.7438   0.6985

  WITH FROZEN REACTIONS

 Cp, KJ/(KG)(K)   14.4597  14.4644  14.4687  14.4726  14.4762  14.4795  14.4825  14.4852
 CONDUCTIVITY      0.0005   0.0034   0.0200   0.1115   0.5112   1.4020   2.0658   2.2817
 PRANDTL NUMBER    2.3369   2.3303   2.2899   2.0912   1.5191   0.9477   0.7438   0.6985

 MASS FRACTIONS

 *H2              1.00000  1.00000  1.00000  1.00000  1.00000  1.00000  1.00000  1.00000

  * THERMODYNAMIC PROPERTIES FITTED TO 20000.K

 NOTE. WEIGHT FRACTION OF FUEL IN TOTAL FUELS AND OF OXIDANT IN TOTAL OXIDANTS









               THERMODYNAMIC EQUILIBRIUM PROPERTIES AT ASSIGNED

                           TEMPERATURE AND PRESSURE

 CASE =                

             REACTANT                    WT FRACTION      ENERGY      TEMP
                                          (SEE NOTE)     KJ/KG-MOL      K  
 FUEL        H2                           1.0000000         0.000      0.000
 OXIDANT     H2                           1.0000000         0.000      0.000

 O/F=    1.00000  %FUEL= 50.000000  R,EQ.RATIO= 0.000000  PHI,EQ.RATIO=-1.000000

 THERMODYNAMIC PROPERTIES

 P, BAR            28.000   28.000   28.000   28.000   28.000   28.000   28.000   31.000
 T, K              415.00   420.00   425.00   430.00   435.00   440.00   445.00   375.00
 RHO, KG/CU M    1.6358 0 1.6164 0 1.5973 0 1.5788 0 1.5606 0 1.5429 0 1.5256 0 2.0043 0
 H, KJ/KG         1685.49  1757.93  1830.39  1902.85  1975.33  2047.81  2120.30  1106.47
 U, KJ/KG         -26.175   25.647   77.480   129.32   181.17   233.03   284.90  -440.21
 G, KJ/KG        -21492.4 -21772.1 -22052.6 -22334.0 -22616.3 -22899.4 -23183.3 -19129.8
 S, KJ/(KG)(K)    55.8503  56.0239  56.1954  56.3649  56.5324  56.6981  56.8619  53.9635

 M, (1/n)           2.016    2.016    2.016    2.016    2.016    2.016    2.016    2.016
 (dLV/dLP)t      -1.00000 -1.00000 -1.00000 -1.00000 -1.00000 -1.00000 -1.00000 -1.00000
 (dLV/dLT)p        1.0000   1.0000   1.0000   1.0000   1.0000   1.0000   1.0000   1.0000
 Cp, KJ/(KG)(K)   14.4877  14.4900  14.4920  14.4939  14.4957  14.4973  14.4988  14.4597
 GAMMAs            1.3980   1.3979   1.3978   1.3978   1.3977   1.3976   1.3976   1.3991
 SON VEL,M/SEC     1546.9   1556.1   1565.3   1574.5   1583.6   1592.6   1601.6   1471.0

 TRANSPORT PROPERTIES (GASES ONLY)
   CONDUCTIVITY IN UNITS OF MILLIWATTS/(CM)(K)

 VISC,MILLIPOISE  0.11155  0.11259  0.11352  0.11443  0.11533  0.11623  0.11713  0.00009

  WITH EQUILIBRIUM REACTIONS

 Cp, KJ/(KG)(K)   14.4877  14.4900  14.4920  14.4939  14.4957  14.4973  14.4988  14.4597
 CONDUCTIVITY      2.3439   2.3719   2.3928   2.4123   2.4313   2.4503   2.4692   0.0005
 PRANDTL NUMBER    0.6895   0.6878   0.6875   0.6875   0.6876   0.6877   0.6878   2.3369

  WITH FROZEN REACTIONS

 Cp, KJ/(KG)(K)   14.4877  14.4900  14.4920  14.4939  14.4957  14.4973  14.4988  14.4597
 CONDUCTIVITY      2.3439   2.3719   2.3928   2.4123   2.4313   2.4503   2.4692   0.0005
 PRANDTL NUMBER    0.6895   0.6878   0.6875   0.6875   0.6876   0.6877   0.6878   2.3369

 MASS FRACTIONS

 *H2              1.00000  1.00000  1.00000  1.00000  1.00000  1.00000  1.00000  1.00000

  * THERMODYNAMIC PROPERTIES FITTED TO 20000.K

 NOTE. WEIGHT FRACTION OF FUEL IN TOTAL FUELS AND OF OXIDANT IN TOTAL OXIDANTS









               THERMODYNAMIC EQUILIBRIUM PROPERTIES AT ASSIGNED

                           TEMPERATURE AND PRESSURE

 CASE =                

             REACTANT                    WT FRACTION      ENERGY      TEMP
                                          (SEE NOTE)     KJ/KG-MOL      K  
 FUEL        H2                           1.0000000         0.000      0.000
 OXIDANT     H2                           1.0000000         0.000      0.000

 O/F=    1.00000  %FUEL= 50.000000  R,EQ.RATIO= 0.000000  PHI,EQ.RATIO=-1.000000

 THERMODYNAMIC PROPERTIES

 P, BAR            31.000   31.000   31.000   31.000   31.000   31.000   31.000   31.000
 T, K              380.00   385.00   390.00   395.00   400.00   405.00   410.00   415.00
 RHO, KG/CU M    1.9779 0 1.9522 0 1.9272 0 1.9028 0 1.8790 0 1.8558 0 1.8332 0 1.8111 0
 H, KJ/KG         1178.78  1251.12  1323.47  1395.84  1468.23  1540.64  1613.06  1685.49
 U, KJ/KG         -388.52  -336.81  -285.08  -233.33  -181.56  -129.78  -77.985  -26.175
 G, KJ/KG        -19400.1 -19671.4 -19943.6 -20216.7 -20490.7 -20765.6 -21041.5 -21318.2
 S, KJ/(KG)(K)    54.1550  54.3441  54.5308  54.7152  54.8973  55.0772  55.2549  55.4305

 M, (1/n)           2.016    2.016    2.016    2.016    2.016    2.016    2.016    2.016
 (dLV/dLP)t      -1.00000 -1.00000 -1.00000 -1.00000 -1.00000 -1.00000 -1.00000 -1.00000
 (dLV/dLT)p        1.0000   1.0000   1.0000   1.0000   1.0000   1.0000   1.0000   1.0000
 Cp, KJ/(KG)(K)   14.4644  14.4687  14.4726  14.4762  14.4795  14.4825  14.4852  14.4877
 GAMMAs            1.3989   1.3987   1.3986   1.3984   1.3983   1.3982   1.3981   1.3980
 SON VEL,M/SEC     1480.7   1490.3   1499.9   1509.4   1518.9   1528.3   1537.6   1546.9

 TRANSPORT PROPERTIES (GASES ONLY)
   CONDUCTIVITY IN UNITS OF MILLIWATTS/(CM)(K)

 VISC,MILLIPOISE  0.00054  0.00317  0.01611  0.05365  0.09177  0.10610  0.11003  0.11155

  WITH EQUILIBRIUM REACTIONS

 Cp, KJ/(KG)(K)   14.4644  14.4687  14.4726  14.4762  14.4795  14.4825  14.4852  14.4877
 CONDUCTIVITY      0.0034   0.0200   0.1115   0.5112   1.4020   2.0658   2.2817   2.3439
 PRANDTL NUMBER    2.3303   2.2899   2.0912   1.5191   0.9477   0.7438   0.6985   0.6895

  WITH FROZEN REACTIONS

 Cp, KJ/(KG)(K)   14.4644  14.4687  14.4726  14.4762  14.4795  14.4825  14.4852  14.4877
 CONDUCTIVITY      0.0034   0.0200   0.1115   0.5112   1.4020   2.0658   2.2817   2.3439
 PRANDTL NUMBER    2.3303   2.2899   2.0912   1.5191   0.9477   0.7438   0.6985   0.6895

 MASS FRACTIONS

 *H2              1.00000  1.00000  1.00000  1.00000  1.00000  1.00000  1.00000  1.00000

  * THERMODYNAMIC PROPERTIES FITTED TO 20000.K

 NOTE. WEIGHT FRACTION OF FUEL IN TOTAL FUELS AND OF OXIDANT IN TOTAL OXIDANTS









               THERMODYNAMIC EQUILIBRIUM PROPERTIES AT ASSIGNED

                           TEMPERATURE AND PRESSURE

 CASE =                

             REACTANT                    WT FRACTION      ENERGY      TEMP
                                          (SEE NOTE)     KJ/KG-MOL      K  
 FUEL        H2                           1.0000000         0.000      0.000
 OXIDANT     H2                           1.0000000         0.000      0.000

 O/F=    1.00000  %FUEL= 50.000000  R,EQ.RATIO= 0.000000  PHI,EQ.RATIO=-1.000000

 THERMODYNAMIC PROPERTIES

 P, BAR            31.000   31.000   31.000   31.000   31.000   31.000   35.000   35.000
 T, K              420.00   425.00   430.00   435.00   440.00   445.00   375.00   380.00
 RHO, KG/CU M    1.7895 0 1.7685 0 1.7479 0 1.7278 0 1.7082 0 1.6890 0 2.2629 0 2.2331 0
 H, KJ/KG         1757.93  1830.39  1902.85  1975.33  2047.81  2120.30  1106.47  1178.78
 U, KJ/KG          25.647   77.480   129.32   181.17   233.03   284.90  -440.21  -388.52
 G, KJ/KG        -21595.8 -21874.2 -22153.5 -22433.7 -22714.6 -22996.4 -18942.1 -19209.9
 S, KJ/(KG)(K)    55.6041  55.7756  55.9451  56.1126  56.2783  56.4421  53.4629  53.6545

 M, (1/n)           2.016    2.016    2.016    2.016    2.016    2.016    2.016    2.016
 (dLV/dLP)t      -1.00000 -1.00000 -1.00000 -1.00000 -1.00000 -1.00000 -1.00000 -1.00000
 (dLV/dLT)p        1.0000   1.0000   1.0000   1.0000   1.0000   1.0000   1.0000   1.0000
 Cp, KJ/(KG)(K)   14.4900  14.4920  14.4939  14.4957  14.4973  14.4988  14.4597  14.4644
 GAMMAs            1.3979   1.3978   1.3978   1.3977   1.3976   1.3976   1.3991   1.3989
 SON VEL,M/SEC     1556.1   1565.3   1574.5   1583.6   1592.6   1601.6   1471.0   1480.7

 TRANSPORT PROPERTIES (GASES ONLY)
   CONDUCTIVITY IN UNITS OF MILLIWATTS/(CM)(K)

 VISC,MILLIPOISE  0.11259  0.11352  0.11443  0.11533  0.11623  0.11713  0.00009  0.00054

  WITH EQUILIBRIUM REACTIONS

 Cp, KJ/(KG)(K)   14.4900  14.4920  14.4939  14.4957  14.4973  14.4988  14.4597  14.4644
 CONDUCTIVITY      2.3719   2.3928   2.4123   2.4313   2.4503   2.4692   0.0005   0.0034
 PRANDTL NUMBER    0.6878   0.6875   0.6875   0.6876   0.6877   0.6878   2.3369   2.3303

  WITH FROZEN REACTIONS

 Cp, KJ/(KG)(K)   14.4900  14.4920  14.4939  14.4957  14.4973  14.4988  14.4597  14.4644
 CONDUCTIVITY      2.3719   2.3928   2.4123   2.4313   2.4503   2.4692   0.0005   0.0034
 PRANDTL NUMBER    0.6878   0.6875   0.6875   0.6876   0.6877   0.6878   2.3369   2.3303

 MASS FRACTIONS

 *H2              1.00000  1.00000  1.00000  1.00000  1.00000  1.00000  1.00000  1.00000

  * THERMODYNAMIC PROPERTIES FITTED TO 20000.K

 NOTE. WEIGHT FRACTION OF FUEL IN TOTAL FUELS AND OF OXIDANT IN TOTAL OXIDANTS









               THERMODYNAMIC EQUILIBRIUM PROPERTIES AT ASSIGNED

                           TEMPERATURE AND PRESSURE

 CASE =                

             REACTANT                    WT FRACTION      ENERGY      TEMP
                                          (SEE NOTE)     KJ/KG-MOL      K  
 FUEL        H2                           1.0000000         0.000      0.000
 OXIDANT     H2                           1.0000000         0.000      0.000

 O/F=    1.00000  %FUEL= 50.000000  R,EQ.RATIO= 0.000000  PHI,EQ.RATIO=-1.000000

 THERMODYNAMIC PROPERTIES

 P, BAR            35.000   35.000   35.000   35.000   35.000   35.000   35.000   35.000
 T, K              385.00   390.00   395.00   400.00   405.00   410.00   415.00   420.00
 RHO, KG/CU M    2.2041 0 2.1759 0 2.1483 0 2.1215 0 2.0953 0 2.0697 0 2.0448 0 2.0205 0
 H, KJ/KG         1251.12  1323.47  1395.84  1468.23  1540.64  1613.06  1685.49  1757.93
 U, KJ/KG         -336.81  -285.08  -233.33  -181.56  -129.78  -77.985  -26.175   25.647
 G, KJ/KG        -19478.7 -19748.3 -20019.0 -20290.5 -20562.9 -20836.2 -21110.5 -21385.5
 S, KJ/(KG)(K)    53.8436  54.0303  54.2147  54.3968  54.5767  54.7544  54.9300  55.1035

 M, (1/n)           2.016    2.016    2.016    2.016    2.016    2.016    2.016    2.016
 (dLV/dLP)t      -1.00000 -1.00000 -1.00000 -1.00000 -1.00000 -1.00000 -1.00000 -1.00000
 (dLV/dLT)p        1.0000   1.0000   1.0000   1.0000   1.0000   1.0000   1.0000   1.0000
 Cp, KJ/(KG)(K)   14.4687  14.4726  14.4762  14.4795  14.4825  14.4852  14.4877  14.4900
 GAMMAs            1.3987   1.3986   1.3984   1.3983   1.3982   1.3981   1.3980   1.3979
 SON VEL,M/SEC     1490.3   1499.9   1509.4   1518.9   1528.3   1537.6   1546.9   1556.1

 TRANSPORT PROPERTIES (GASES ONLY)
   CONDUCTIVITY IN UNITS OF MILLIWATTS/(CM)(K)

 VISC,MILLIPOISE  0.00317  0.01611  0.05365  0.09177  0.10610  0.11003  0.11155  0.11259

  WITH EQUILIBRIUM REACTIONS

 Cp, KJ/(KG)(K)   14.4687  14.4726  14.4762  14.4795  14.4825  14.4852  14.4877  14.4900
 CONDUCTIVITY      0.0200   0.1115   0.5112   1.4020   2.0658   2.2817   2.3439   2.3719
 PRANDTL NUMBER    2.2899   2.0912   1.5191   0.9477   0.7438   0.6985   0.6895   0.6878

  WITH FROZEN REACTIONS

 Cp, KJ/(KG)(K)   14.4687  14.4726  14.4762  14.4795  14.4825  14.4852  14.4877  14.4900
 CONDUCTIVITY      0.0200   0.1115   0.5112   1.4020   2.0658   2.2817   2.3439   2.3719
 PRANDTL NUMBER    2.2899   2.0912   1.5191   0.9477   0.7438   0.6985   0.6895   0.6878

 MASS FRACTIONS

 *H2              1.00000  1.00000  1.00000  1.00000  1.00000  1.00000  1.00000  1.00000

  * THERMODYNAMIC PROPERTIES FITTED TO 20000.K

 NOTE. WEIGHT FRACTION OF FUEL IN TOTAL FUELS AND OF OXIDANT IN TOTAL OXIDANTS









               THERMODYNAMIC EQUILIBRIUM PROPERTIES AT ASSIGNED

                           TEMPERATURE AND PRESSURE

 CASE =                

             REACTANT                    WT FRACTION      ENERGY      TEMP
                                          (SEE NOTE)     KJ/KG-MOL      K  
 FUEL        H2                           1.0000000         0.000      0.000
 OXIDANT     H2                           1.0000000         0.000      0.000

 O/F=    1.00000  %FUEL= 50.000000  R,EQ.RATIO= 0.000000  PHI,EQ.RATIO=-1.000000

 THERMODYNAMIC PROPERTIES

 P, BAR            35.000   35.000   35.000   35.000   35.000   39.000   39.000   39.000
 T, K              425.00   430.00   435.00   440.00   445.00   375.00   380.00   385.00
 RHO, KG/CU M    1.9967 0 1.9735 0 1.9508 0 1.9286 0 1.9069 0 2.5215 0 2.4883 0 2.4560 0
 H, KJ/KG         1830.39  1902.85  1975.33  2047.81  2120.30  1106.47  1178.78  1251.12
 U, KJ/KG          77.480   129.32   181.17   233.03   284.90  -440.21  -388.52  -336.81
 G, KJ/KG        -21661.5 -21938.3 -22215.9 -22494.4 -22773.7 -18774.8 -19040.3 -19306.8
 S, KJ/(KG)(K)    55.2750  55.4445  55.6121  55.7778  55.9416  53.0166  53.2081  53.3972

 M, (1/n)           2.016    2.016    2.016    2.016    2.016    2.016    2.016    2.016
 (dLV/dLP)t      -1.00000 -1.00000 -1.00000 -1.00000 -1.00000 -1.00000 -1.00000 -1.00000
 (dLV/dLT)p        1.0000   1.0000   1.0000   1.0000   1.0000   1.0000   1.0000   1.0000
 Cp, KJ/(KG)(K)   14.4920  14.4939  14.4957  14.4973  14.4988  14.4597  14.4644  14.4687
 GAMMAs            1.3978   1.3978   1.3977   1.3976   1.3976   1.3991   1.3989   1.3987
 SON VEL,M/SEC     1565.3   1574.5   1583.6   1592.6   1601.6   1471.0   1480.7   1490.3

 TRANSPORT PROPERTIES (GASES ONLY)
   CONDUCTIVITY IN UNITS OF MILLIWATTS/(CM)(K)

 VISC,MILLIPOISE  0.11352  0.11443  0.11533  0.11623  0.11713  0.00009  0.00054  0.00317

  WITH EQUILIBRIUM REACTIONS

 Cp, KJ/(KG)(K)   14.4920  14.4939  14.4957  14.4973  14.4988  14.4597  14.4644  14.4687
 CONDUCTIVITY      2.3928   2.4123   2.4313   2.4503   2.4692   0.0005   0.0034   0.0200
 PRANDTL NUMBER    0.6875   0.6875   0.6876   0.6877   0.6878   2.3369   2.3303   2.2899

  WITH FROZEN REACTIONS

 Cp, KJ/(KG)(K)   14.4920  14.4939  14.4957  14.4973  14.4988  14.4597  14.4644  14.4687
 CONDUCTIVITY      2.3928   2.4123   2.4313   2.4503   2.4692   0.0005   0.0034   0.0200
 PRANDTL NUMBER    0.6875   0.6875   0.6876   0.6877   0.6878   2.3369   2.3303   2.2899

 MASS FRACTIONS

 *H2              1.00000  1.00000  1.00000  1.00000  1.00000  1.00000  1.00000  1.00000

  * THERMODYNAMIC PROPERTIES FITTED TO 20000.K

 NOTE. WEIGHT FRACTION OF FUEL IN TOTAL FUELS AND OF OXIDANT IN TOTAL OXIDANTS









               THERMODYNAMIC EQUILIBRIUM PROPERTIES AT ASSIGNED

                           TEMPERATURE AND PRESSURE

 CASE =                

             REACTANT                    WT FRACTION      ENERGY      TEMP
                                          (SEE NOTE)     KJ/KG-MOL      K  
 FUEL        H2                           1.0000000         0.000      0.000
 OXIDANT     H2                           1.0000000         0.000      0.000

 O/F=    1.00000  %FUEL= 50.000000  R,EQ.RATIO= 0.000000  PHI,EQ.RATIO=-1.000000

 THERMODYNAMIC PROPERTIES

 P, BAR            39.000   39.000   39.000   39.000   39.000   39.000   39.000   39.000
 T, K              390.00   395.00   400.00   405.00   410.00   415.00   420.00   425.00
 RHO, KG/CU M    2.4245 0 2.3939 0 2.3639 0 2.3347 0 2.3063 0 2.2785 0 2.2514 0 2.2249 0
 H, KJ/KG         1323.47  1395.84  1468.23  1540.64  1613.06  1685.49  1757.93  1830.39
 U, KJ/KG         -285.08  -233.33  -181.56  -129.78  -77.985  -26.175   25.647   77.480
 G, KJ/KG        -19574.3 -19842.7 -20111.9 -20382.2 -20653.2 -20925.2 -21198.1 -21471.8
 S, KJ/(KG)(K)    53.5840  53.7683  53.9505  54.1303  54.3081  54.4837  54.6572  54.8287

 M, (1/n)           2.016    2.016    2.016    2.016    2.016    2.016    2.016    2.016
 (dLV/dLP)t      -1.00000 -1.00000 -1.00000 -1.00000 -1.00000 -1.00000 -1.00000 -1.00000
 (dLV/dLT)p        1.0000   1.0000   1.0000   1.0000   1.0000   1.0000   1.0000   1.0000
 Cp, KJ/(KG)(K)   14.4726  14.4762  14.4795  14.4825  14.4852  14.4877  14.4900  14.4920
 GAMMAs            1.3986   1.3984   1.3983   1.3982   1.3981   1.3980   1.3979   1.3978
 SON VEL,M/SEC     1499.9   1509.4   1518.9   1528.3   1537.6   1546.9   1556.1   1565.3

 TRANSPORT PROPERTIES (GASES ONLY)
   CONDUCTIVITY IN UNITS OF MILLIWATTS/(CM)(K)

 VISC,MILLIPOISE  0.01611  0.05365  0.09177  0.10610  0.11003  0.11155  0.11259  0.11352

  WITH EQUILIBRIUM REACTIONS

 Cp, KJ/(KG)(K)   14.4726  14.4762  14.4795  14.4825  14.4852  14.4877  14.4900  14.4920
 CONDUCTIVITY      0.1115   0.5112   1.4020   2.0658   2.2817   2.3439   2.3719   2.3928
 PRANDTL NUMBER    2.0912   1.5191   0.9477   0.7438   0.6985   0.6895   0.6878   0.6875

  WITH FROZEN REACTIONS

 Cp, KJ/(KG)(K)   14.4726  14.4762  14.4795  14.4825  14.4852  14.4877  14.4900  14.4920
 CONDUCTIVITY      0.1115   0.5112   1.4020   2.0658   2.2817   2.3439   2.3719   2.3928
 PRANDTL NUMBER    2.0912   1.5191   0.9477   0.7438   0.6985   0.6895   0.6878   0.6875

 MASS FRACTIONS

 *H2              1.00000  1.00000  1.00000  1.00000  1.00000  1.00000  1.00000  1.00000

  * THERMODYNAMIC PROPERTIES FITTED TO 20000.K

 NOTE. WEIGHT FRACTION OF FUEL IN TOTAL FUELS AND OF OXIDANT IN TOTAL OXIDANTS









               THERMODYNAMIC EQUILIBRIUM PROPERTIES AT ASSIGNED

                           TEMPERATURE AND PRESSURE

 CASE =                

             REACTANT                    WT FRACTION      ENERGY      TEMP
                                          (SEE NOTE)     KJ/KG-MOL      K  
 FUEL        H2                           1.0000000         0.000      0.000
 OXIDANT     H2                           1.0000000         0.000      0.000

 O/F=    1.00000  %FUEL= 50.000000  R,EQ.RATIO= 0.000000  PHI,EQ.RATIO=-1.000000

 THERMODYNAMIC PROPERTIES

 P, BAR            39.000   39.000   39.000   39.000   44.000   44.000   44.000   44.000
 T, K              430.00   435.00   440.00   445.00   375.00   380.00   385.00   390.00
 RHO, KG/CU M    2.1990 0 2.1737 0 2.1490 0 2.1249 0 2.8448 0 2.8074 0 2.7709 0 2.7354 0
 H, KJ/KG         1902.85  1975.33  2047.81  2120.30  1106.47  1178.78  1251.12  1323.47
 U, KJ/KG          129.32   181.17   233.03   284.90  -440.21  -388.52  -336.81  -285.08
 G, KJ/KG        -21746.4 -22021.8 -22298.0 -22575.1 -18588.2 -18851.2 -19115.3 -19380.2
 S, KJ/(KG)(K)    54.9982  55.1658  55.3314  55.4953  52.5191  52.7106  52.8997  53.0864

 M, (1/n)           2.016    2.016    2.016    2.016    2.016    2.016    2.016    2.016
 (dLV/dLP)t      -1.00000 -1.00000 -1.00000 -1.00000 -1.00000 -1.00000 -1.00000 -1.00000
 (dLV/dLT)p        1.0000   1.0000   1.0000   1.0000   1.0000   1.0000   1.0000   1.0000
 Cp, KJ/(KG)(K)   14.4939  14.4957  14.4973  14.4988  14.4597  14.4644  14.4687  14.4726
 GAMMAs            1.3978   1.3977   1.3976   1.3976   1.3991   1.3989   1.3987   1.3986
 SON VEL,M/SEC     1574.5   1583.6   1592.6   1601.6   1471.0   1480.7   1490.3   1499.9

 TRANSPORT PROPERTIES (GASES ONLY)
   CONDUCTIVITY IN UNITS OF MILLIWATTS/(CM)(K)

 VISC,MILLIPOISE  0.11443  0.11533  0.11623  0.11713  0.00009  0.00054  0.00317  0.01611

  WITH EQUILIBRIUM REACTIONS

 Cp, KJ/(KG)(K)   14.4939  14.4957  14.4973  14.4988  14.4597  14.4644  14.4687  14.4726
 CONDUCTIVITY      2.4123   2.4313   2.4503   2.4692   0.0005   0.0034   0.0200   0.1115
 PRANDTL NUMBER    0.6875   0.6876   0.6877   0.6878   2.3369   2.3303   2.2899   2.0912

  WITH FROZEN REACTIONS

 Cp, KJ/(KG)(K)   14.4939  14.4957  14.4973  14.4988  14.4597  14.4644  14.4687  14.4726
 CONDUCTIVITY      2.4123   2.4313   2.4503   2.4692   0.0005   0.0034   0.0200   0.1115
 PRANDTL NUMBER    0.6875   0.6876   0.6877   0.6878   2.3369   2.3303   2.2899   2.0912

 MASS FRACTIONS

 *H2              1.00000  1.00000  1.00000  1.00000  1.00000  1.00000  1.00000  1.00000

  * THERMODYNAMIC PROPERTIES FITTED TO 20000.K

 NOTE. WEIGHT FRACTION OF FUEL IN TOTAL FUELS AND OF OXIDANT IN TOTAL OXIDANTS









               THERMODYNAMIC EQUILIBRIUM PROPERTIES AT ASSIGNED

                           TEMPERATURE AND PRESSURE

 CASE =                

             REACTANT                    WT FRACTION      ENERGY      TEMP
                                          (SEE NOTE)     KJ/KG-MOL      K  
 FUEL        H2                           1.0000000         0.000      0.000
 OXIDANT     H2                           1.0000000         0.000      0.000

 O/F=    1.00000  %FUEL= 50.000000  R,EQ.RATIO= 0.000000  PHI,EQ.RATIO=-1.000000

 THERMODYNAMIC PROPERTIES

 P, BAR            44.000   44.000   44.000   44.000   44.000   44.000   44.000   44.000
 T, K              395.00   400.00   405.00   410.00   415.00   420.00   425.00   430.00
 RHO, KG/CU M    2.7008 0 2.6670 0 2.6341 0 2.6019 0 2.5706 0 2.5400 0 2.5101 0 2.4809 0
 H, KJ/KG         1395.84  1468.23  1540.64  1613.06  1685.49  1757.93  1830.39  1902.85
 U, KJ/KG         -233.33  -181.56  -129.78  -77.985  -26.175   25.647   77.480   129.32
 G, KJ/KG        -19646.1 -19912.9 -20180.7 -20449.3 -20718.8 -20989.1 -21260.3 -21532.4
 S, KJ/(KG)(K)    53.2708  53.4529  53.6328  53.8105  53.9861  54.1596  54.3311  54.5007

 M, (1/n)           2.016    2.016    2.016    2.016    2.016    2.016    2.016    2.016
 (dLV/dLP)t      -1.00000 -1.00000 -1.00000 -1.00000 -1.00000 -1.00000 -1.00000 -1.00000
 (dLV/dLT)p        1.0000   1.0000   1.0000   1.0000   1.0000   1.0000   1.0000   1.0000
 Cp, KJ/(KG)(K)   14.4762  14.4795  14.4825  14.4852  14.4877  14.4900  14.4920  14.4939
 GAMMAs            1.3984   1.3983   1.3982   1.3981   1.3980   1.3979   1.3978   1.3978
 SON VEL,M/SEC     1509.4   1518.9   1528.3   1537.6   1546.9   1556.1   1565.3   1574.5

 TRANSPORT PROPERTIES (GASES ONLY)
   CONDUCTIVITY IN UNITS OF MILLIWATTS/(CM)(K)

 VISC,MILLIPOISE  0.05365  0.09177  0.10610  0.11003  0.11155  0.11259  0.11352  0.11443

  WITH EQUILIBRIUM REACTIONS

 Cp, KJ/(KG)(K)   14.4762  14.4795  14.4825  14.4852  14.4877  14.4900  14.4920  14.4939
 CONDUCTIVITY      0.5112   1.4020   2.0658   2.2817   2.3439   2.3719   2.3928   2.4123
 PRANDTL NUMBER    1.5191   0.9477   0.7438   0.6985   0.6895   0.6878   0.6875   0.6875

  WITH FROZEN REACTIONS

 Cp, KJ/(KG)(K)   14.4762  14.4795  14.4825  14.4852  14.4877  14.4900  14.4920  14.4939
 CONDUCTIVITY      0.5112   1.4020   2.0658   2.2817   2.3439   2.3719   2.3928   2.4123
 PRANDTL NUMBER    1.5191   0.9477   0.7438   0.6985   0.6895   0.6878   0.6875   0.6875

 MASS FRACTIONS

 *H2              1.00000  1.00000  1.00000  1.00000  1.00000  1.00000  1.00000  1.00000

  * THERMODYNAMIC PROPERTIES FITTED TO 20000.K

 NOTE. WEIGHT FRACTION OF FUEL IN TOTAL FUELS AND OF OXIDANT IN TOTAL OXIDANTS









               THERMODYNAMIC EQUILIBRIUM PROPERTIES AT ASSIGNED

                           TEMPERATURE AND PRESSURE

 CASE =                

             REACTANT                    WT FRACTION      ENERGY      TEMP
                                          (SEE NOTE)     KJ/KG-MOL      K  
 FUEL        H2                           1.0000000         0.000      0.000
 OXIDANT     H2                           1.0000000         0.000      0.000

 O/F=    1.00000  %FUEL= 50.000000  R,EQ.RATIO= 0.000000  PHI,EQ.RATIO=-1.000000

 THERMODYNAMIC PROPERTIES

 P, BAR            44.000   44.000   44.000   49.000   49.000   49.000   49.000   49.000
 T, K              435.00   440.00   445.00   375.00   380.00   385.00   390.00   395.00
 RHO, KG/CU M    2.4524 0 2.4245 0 2.3973 0 3.1681 0 3.1264 0 3.0858 0 3.0462 0 3.0077 0
 H, KJ/KG         1975.33  2047.81  2120.30  1106.47  1178.78  1251.12  1323.47  1395.84
 U, KJ/KG          181.17   233.03   284.90  -440.21  -388.52  -336.81  -285.08  -233.33
 G, KJ/KG        -21805.4 -22079.1 -22353.7 -18421.7 -18682.6 -18944.4 -19207.1 -19470.8
 S, KJ/(KG)(K)    54.6682  54.8339  54.9977  52.0752  52.2667  52.4558  52.6425  52.8269

 M, (1/n)           2.016    2.016    2.016    2.016    2.016    2.016    2.016    2.016
 (dLV/dLP)t      -1.00000 -1.00000 -1.00000 -1.00000 -1.00000 -1.00000 -1.00000 -1.00000
 (dLV/dLT)p        1.0000   1.0000   1.0000   1.0000   1.0000   1.0000   1.0000   1.0000
 Cp, KJ/(KG)(K)   14.4957  14.4973  14.4988  14.4597  14.4644  14.4687  14.4726  14.4762
 GAMMAs            1.3977   1.3976   1.3976   1.3991   1.3989   1.3987   1.3986   1.3984
 SON VEL,M/SEC     1583.6   1592.6   1601.6   1471.0   1480.7   1490.3   1499.9   1509.4

 TRANSPORT PROPERTIES (GASES ONLY)
   CONDUCTIVITY IN UNITS OF MILLIWATTS/(CM)(K)

 VISC,MILLIPOISE  0.11533  0.11623  0.11713  0.00009  0.00054  0.00317  0.01611  0.05365

  WITH EQUILIBRIUM REACTIONS

 Cp, KJ/(KG)(K)   14.4957  14.4973  14.4988  14.4597  14.4644  14.4687  14.4726  14.4762
 CONDUCTIVITY      2.4313   2.4503   2.4692   0.0005   0.0034   0.0200   0.1115   0.5112
 PRANDTL NUMBER    0.6876   0.6877   0.6878   2.3369   2.3303   2.2899   2.0912   1.5191

  WITH FROZEN REACTIONS

 Cp, KJ/(KG)(K)   14.4957  14.4973  14.4988  14.4597  14.4644  14.4687  14.4726  14.4762
 CONDUCTIVITY      2.4313   2.4503   2.4692   0.0005   0.0034   0.0200   0.1115   0.5112
 PRANDTL NUMBER    0.6876   0.6877   0.6878   2.3369   2.3303   2.2899   2.0912   1.5191

 MASS FRACTIONS

 *H2              1.00000  1.00000  1.00000  1.00000  1.00000  1.00000  1.00000  1.00000

  * THERMODYNAMIC PROPERTIES FITTED TO 20000.K

 NOTE. WEIGHT FRACTION OF FUEL IN TOTAL FUELS AND OF OXIDANT IN TOTAL OXIDANTS









               THERMODYNAMIC EQUILIBRIUM PROPERTIES AT ASSIGNED

                           TEMPERATURE AND PRESSURE

 CASE =                

             REACTANT                    WT FRACTION      ENERGY      TEMP
                                          (SEE NOTE)     KJ/KG-MOL      K  
 FUEL        H2                           1.0000000         0.000      0.000
 OXIDANT     H2                           1.0000000         0.000      0.000

 O/F=    1.00000  %FUEL= 50.000000  R,EQ.RATIO= 0.000000  PHI,EQ.RATIO=-1.000000

 THERMODYNAMIC PROPERTIES

 P, BAR            49.000   49.000   49.000   49.000   49.000   49.000   49.000   49.000
 T, K              400.00   405.00   410.00   415.00   420.00   425.00   430.00   435.00
 RHO, KG/CU M    2.9701 0 2.9334 0 2.8976 0 2.8627 0 2.8286 0 2.7954 0 2.7628 0 2.7311 0
 H, KJ/KG         1468.23  1540.64  1613.06  1685.49  1757.93  1830.39  1902.85  1975.33
 U, KJ/KG         -181.56  -129.78  -77.985  -26.175   25.647   77.480   129.32   181.17
 G, KJ/KG        -19735.4 -20000.9 -20267.3 -20534.5 -20802.7 -21071.7 -21341.5 -21612.2
 S, KJ/(KG)(K)    53.0090  53.1889  53.3666  53.5422  53.7157  53.8872  54.0567  54.2243

 M, (1/n)           2.016    2.016    2.016    2.016    2.016    2.016    2.016    2.016
 (dLV/dLP)t      -1.00000 -1.00000 -1.00000 -1.00000 -1.00000 -1.00000 -1.00000 -1.00000
 (dLV/dLT)p        1.0000   1.0000   1.0000   1.0000   1.0000   1.0000   1.0000   1.0000
 Cp, KJ/(KG)(K)   14.4795  14.4825  14.4852  14.4877  14.4900  14.4920  14.4939  14.4957
 GAMMAs            1.3983   1.3982   1.3981   1.3980   1.3979   1.3978   1.3978   1.3977
 SON VEL,M/SEC     1518.9   1528.3   1537.6   1546.9   1556.1   1565.3   1574.5   1583.6

 TRANSPORT PROPERTIES (GASES ONLY)
   CONDUCTIVITY IN UNITS OF MILLIWATTS/(CM)(K)

 VISC,MILLIPOISE  0.09177  0.10610  0.11003  0.11155  0.11259  0.11352  0.11443  0.11533

  WITH EQUILIBRIUM REACTIONS

 Cp, KJ/(KG)(K)   14.4795  14.4825  14.4852  14.4877  14.4900  14.4920  14.4939  14.4957
 CONDUCTIVITY      1.4020   2.0658   2.2817   2.3439   2.3719   2.3928   2.4123   2.4313
 PRANDTL NUMBER    0.9477   0.7438   0.6985   0.6895   0.6878   0.6875   0.6875   0.6876

  WITH FROZEN REACTIONS

 Cp, KJ/(KG)(K)   14.4795  14.4825  14.4852  14.4877  14.4900  14.4920  14.4939  14.4957
 CONDUCTIVITY      1.4020   2.0658   2.2817   2.3439   2.3719   2.3928   2.4123   2.4313
 PRANDTL NUMBER    0.9477   0.7438   0.6985   0.6895   0.6878   0.6875   0.6875   0.6876

 MASS FRACTIONS

 *H2              1.00000  1.00000  1.00000  1.00000  1.00000  1.00000  1.00000  1.00000

  * THERMODYNAMIC PROPERTIES FITTED TO 20000.K

 NOTE. WEIGHT FRACTION OF FUEL IN TOTAL FUELS AND OF OXIDANT IN TOTAL OXIDANTS









               THERMODYNAMIC EQUILIBRIUM PROPERTIES AT ASSIGNED

                           TEMPERATURE AND PRESSURE

 CASE =                

             REACTANT                    WT FRACTION      ENERGY      TEMP
                                          (SEE NOTE)     KJ/KG-MOL      K  
 FUEL        H2                           1.0000000         0.000      0.000
 OXIDANT     H2                           1.0000000         0.000      0.000

 O/F=    1.00000  %FUEL= 50.000000  R,EQ.RATIO= 0.000000  PHI,EQ.RATIO=-1.000000

 THERMODYNAMIC PROPERTIES

 P, BAR            49.000   49.000   54.000   54.000   54.000   54.000   54.000   54.000
 T, K              440.00   445.00   375.00   380.00   385.00   390.00   395.00   400.00
 RHO, KG/CU M    2.7001 0 2.6697 0 3.4913 0 3.4454 0 3.4007 0 3.3571 0 3.3146 0 3.2731 0
 H, KJ/KG         2047.81  2120.30  1106.47  1178.78  1251.12  1323.47  1395.84  1468.23
 U, KJ/KG          233.03   284.90  -440.21  -388.52  -336.81  -285.08  -233.33  -181.56
 G, KJ/KG        -21883.8 -22156.1 -18271.4 -18530.3 -18790.1 -19050.8 -19312.5 -19575.1
 S, KJ/(KG)(K)    54.3900  54.5538  51.6744  51.8659  52.0550  52.2417  52.4261  52.6082

 M, (1/n)           2.016    2.016    2.016    2.016    2.016    2.016    2.016    2.016
 (dLV/dLP)t      -1.00000 -1.00000 -1.00000 -1.00000 -1.00000 -1.00000 -1.00000 -1.00000
 (dLV/dLT)p        1.0000   1.0000   1.0000   1.0000   1.0000   1.0000   1.0000   1.0000
 Cp, KJ/(KG)(K)   14.4973  14.4988  14.4597  14.4644  14.4687  14.4726  14.4762  14.4795
 GAMMAs            1.3976   1.3976   1.3991   1.3989   1.3987   1.3986   1.3984   1.3983
 SON VEL,M/SEC     1592.6   1601.6   1471.0   1480.7   1490.3   1499.9   1509.4   1518.9

 TRANSPORT PROPERTIES (GASES ONLY)
   CONDUCTIVITY IN UNITS OF MILLIWATTS/(CM)(K)

 VISC,MILLIPOISE  0.11623  0.11713  0.00009  0.00054  0.00317  0.01611  0.05365  0.09177

  WITH EQUILIBRIUM REACTIONS

 Cp, KJ/(KG)(K)   14.4973  14.4988  14.4597  14.4644  14.4687  14.4726  14.4762  14.4795
 CONDUCTIVITY      2.4503   2.4692   0.0005   0.0034   0.0200   0.1115   0.5112   1.4020
 PRANDTL NUMBER    0.6877   0.6878   2.3369   2.3303   2.2899   2.0912   1.5191   0.9477

  WITH FROZEN REACTIONS

 Cp, KJ/(KG)(K)   14.4973  14.4988  14.4597  14.4644  14.4687  14.4726  14.4762  14.4795
 CONDUCTIVITY      2.4503   2.4692   0.0005   0.0034   0.0200   0.1115   0.5112   1.4020
 PRANDTL NUMBER    0.6877   0.6878   2.3369   2.3303   2.2899   2.0912   1.5191   0.9477

 MASS FRACTIONS

 *H2              1.00000  1.00000  1.00000  1.00000  1.00000  1.00000  1.00000  1.00000

  * THERMODYNAMIC PROPERTIES FITTED TO 20000.K

 NOTE. WEIGHT FRACTION OF FUEL IN TOTAL FUELS AND OF OXIDANT IN TOTAL OXIDANTS









               THERMODYNAMIC EQUILIBRIUM PROPERTIES AT ASSIGNED

                           TEMPERATURE AND PRESSURE

 CASE =                

             REACTANT                    WT FRACTION      ENERGY      TEMP
                                          (SEE NOTE)     KJ/KG-MOL      K  
 FUEL        H2                           1.0000000         0.000      0.000
 OXIDANT     H2                           1.0000000         0.000      0.000

 O/F=    1.00000  %FUEL= 50.000000  R,EQ.RATIO= 0.000000  PHI,EQ.RATIO=-1.000000

 THERMODYNAMIC PROPERTIES

 P, BAR            54.000   54.000   54.000   54.000   54.000   54.000   54.000   54.000
 T, K              405.00   410.00   415.00   420.00   425.00   430.00   435.00   440.00
 RHO, KG/CU M    3.2327 0 3.1933 0 3.1548 0 3.1173 0 3.0806 0 3.0448 0 3.0098 0 2.9756 0
 H, KJ/KG         1540.64  1613.06  1685.49  1757.93  1830.39  1902.85  1975.33  2047.81
 U, KJ/KG         -129.78  -77.985  -26.175   25.647   77.480   129.32   181.17   233.03
 G, KJ/KG        -19838.6 -20102.9 -20368.2 -20634.4 -20901.4 -21169.2 -21437.9 -21707.4
 S, KJ/(KG)(K)    52.7881  52.9659  53.1415  53.3150  53.4865  53.6560  53.8235  53.9892

 M, (1/n)           2.016    2.016    2.016    2.016    2.016    2.016    2.016    2.016
 (dLV/dLP)t      -1.00000 -1.00000 -1.00000 -1.00000 -1.00000 -1.00000 -1.00000 -1.00000
 (dLV/dLT)p        1.0000   1.0000   1.0000   1.0000   1.0000   1.0000   1.0000   1.0000
 Cp, KJ/(KG)(K)   14.4825  14.4852  14.4877  14.4900  14.4920  14.4939  14.4957  14.4973
 GAMMAs            1.3982   1.3981   1.3980   1.3979   1.3978   1.3978   1.3977   1.3976
 SON VEL,M/SEC     1528.3   1537.6   1546.9   1556.1   1565.3   1574.5   1583.6   1592.6

 TRANSPORT PROPERTIES (GASES ONLY)
   CONDUCTIVITY IN UNITS OF MILLIWATTS/(CM)(K)

 VISC,MILLIPOISE  0.10610  0.11003  0.11155  0.11259  0.11352  0.11443  0.11533  0.11623

  WITH EQUILIBRIUM REACTIONS

 Cp, KJ/(KG)(K)   14.4825  14.4852  14.4877  14.4900  14.4920  14.4939  14.4957  14.4973
 CONDUCTIVITY      2.0658   2.2817   2.3439   2.3719   2.3928   2.4123   2.4313   2.4503
 PRANDTL NUMBER    0.7438   0.6985   0.6895   0.6878   0.6875   0.6875   0.6876   0.6877

  WITH FROZEN REACTIONS

 Cp, KJ/(KG)(K)   14.4825  14.4852  14.4877  14.4900  14.4920  14.4939  14.4957  14.4973
 CONDUCTIVITY      2.0658   2.2817   2.3439   2.3719   2.3928   2.4123   2.4313   2.4503
 PRANDTL NUMBER    0.7438   0.6985   0.6895   0.6878   0.6875   0.6875   0.6876   0.6877

 MASS FRACTIONS

 *H2              1.00000  1.00000  1.00000  1.00000  1.00000  1.00000  1.00000  1.00000

  * THERMODYNAMIC PROPERTIES FITTED TO 20000.K

 NOTE. WEIGHT FRACTION OF FUEL IN TOTAL FUELS AND OF OXIDANT IN TOTAL OXIDANTS









               THERMODYNAMIC EQUILIBRIUM PROPERTIES AT ASSIGNED

                           TEMPERATURE AND PRESSURE

 CASE =                

             REACTANT                    WT FRACTION      ENERGY      TEMP
                                          (SEE NOTE)     KJ/KG-MOL      K  
 FUEL        H2                           1.0000000         0.000      0.000
 OXIDANT     H2                           1.0000000         0.000      0.000

 O/F=    1.00000  %FUEL= 50.000000  R,EQ.RATIO= 0.000000  PHI,EQ.RATIO=-1.000000

 THERMODYNAMIC PROPERTIES

 P, BAR            54.000
 T, K              445.00
 RHO, KG/CU M    2.9421 0
 H, KJ/KG         2120.30
 U, KJ/KG          284.90
 G, KJ/KG        -21977.8
 S, KJ/(KG)(K)    54.1530

 M, (1/n)           2.016
 (dLV/dLP)t      -1.00000
 (dLV/dLT)p        1.0000
 Cp, KJ/(KG)(K)   14.4988
 GAMMAs            1.3976
 SON VEL,M/SEC     1601.6

 TRANSPORT PROPERTIES (GASES ONLY)
   CONDUCTIVITY IN UNITS OF MILLIWATTS/(CM)(K)

 VISC,MILLIPOISE  0.11713

  WITH EQUILIBRIUM REACTIONS

 Cp, KJ/(KG)(K)   14.4988
 CONDUCTIVITY      2.4692
 PRANDTL NUMBER    0.6878

  WITH FROZEN REACTIONS

 Cp, KJ/(KG)(K)   14.4988
 CONDUCTIVITY      2.4692
 PRANDTL NUMBER    0.6878

 MASS FRACTIONS

 *H2              1.00000

  * THERMODYNAMIC PROPERTIES FITTED TO 20000.K

 NOTE. WEIGHT FRACTION OF FUEL IN TOTAL FUELS AND OF OXIDANT IN TOTAL OXIDANTS



  
