
 *******************************************************************************

         NASA-GLENN CHEMICAL EQUILIBRIUM PROGRAM CEA2, MAY 21, 2004
                   BY  BONNIE MCBRIDE AND SANFORD GORDON
      REFS: NASA RP-1311, PART I, 1994 AND NASA RP-1311, PART II, 1996

 *******************************************************************************



  prob tp ions
  p,bar= 60.0,67.0,74.0,82.5,91.0,100.0,110.0,120.0,132.0,148.0,165.0,180.0,200.0
 ,225.0,250.0
  t,k= 1950,1960,1970,1980,1990,2000,2010,2020,2030,2040,2050,2060,2070,2080,2090
  
  reac
  na H2                wt%=100.0000
  
  output short
  output siunits
  output transport
  
 end





               THERMODYNAMIC EQUILIBRIUM PROPERTIES AT ASSIGNED

                           TEMPERATURE AND PRESSURE

 CASE =                

             REACTANT                    WT FRACTION      ENERGY      TEMP
                                          (SEE NOTE)     KJ/KG-MOL      K  
             H2                           1.0000000         0.000      0.000

 O/F=    0.00000  %FUEL=100.000000  R,EQ.RATIO= 0.000000  PHI,EQ.RATIO= 0.000000

 THERMODYNAMIC PROPERTIES

 P, BAR            60.000   60.000   60.000   60.000   60.000   60.000   60.000   60.000
 T, K             1950.00  1960.00  1970.00  1980.00  1990.00  2000.00  2010.00  2020.00
 RHO, KG/CU M    7.4595-1 7.4214-1 7.3837-1 7.3464-1 7.3094-1 7.2728-1 7.2366-1 7.2007-1
 H, KJ/KG         25435.3  25605.7  25776.4  25947.4  26118.7  26290.2  26462.0  26634.0
 U, KJ/KG         17391.9  17521.0  17650.5  17780.2  17910.1  18040.3  18170.8  18301.5
 G, KJ/KG       -123076.7-123838.3-124601.1-125364.9-126129.5-126895.0-127661.4-128428.6
 S, KJ/(KG)(K)    76.1600  76.2469  76.3338  76.4204  76.5066  76.5926  76.6783  76.7637

 M, (1/n)           2.016    2.016    2.016    2.016    2.016    2.016    2.016    2.016
 (dLV/dLP)t      -1.00003 -1.00004 -1.00004 -1.00005 -1.00005 -1.00005 -1.00006 -1.00006
 (dLV/dLT)p        1.0010   1.0011   1.0012   1.0013   1.0013   1.0014   1.0015   1.0016
 Cp, KJ/(KG)(K)   17.0347  17.0601  17.0857  17.1118  17.1381  17.1648  17.1919  17.2193
 GAMMAs            1.3203   1.3197   1.3192   1.3186   1.3180   1.3174   1.3169   1.3163
 SON VEL,M/SEC     3258.8   3266.5   3274.1   3281.7   3289.2   3296.8   3304.3   3311.8

 TRANSPORT PROPERTIES (GASES ONLY)
   CONDUCTIVITY IN UNITS OF MILLIWATTS/(CM)(K)

 VISC,MILLIPOISE  0.32895  0.33018  0.33141  0.33264  0.33387  0.33510  0.33633  0.33756

  WITH EQUILIBRIUM REACTIONS

 Cp, KJ/(KG)(K)   17.0347  17.0601  17.0857  17.1118  17.1381  17.1648  17.1919  17.2193
 CONDUCTIVITY      8.0119   8.0561   8.1012   8.1469   8.1930   8.2397   8.2868   8.3344
 PRANDTL NUMBER    0.6994   0.6992   0.6990   0.6987   0.6984   0.6981   0.6978   0.6974

  WITH FROZEN REACTIONS

 Cp, KJ/(KG)(K)   16.9152  16.9329  16.9507  16.9683  16.9859  17.0033  17.0207  17.0380
 CONDUCTIVITY      7.9053   7.9422   7.9797   8.0173   8.0550   8.0926   8.1303   8.1679
 PRANDTL NUMBER    0.7039   0.7039   0.7040   0.7040   0.7041   0.7041   0.7041   0.7041

 MOLE FRACTIONS

 *H               0.00015  0.00016  0.00017  0.00018  0.00020  0.00021  0.00023  0.00024
 *H2              0.99985  0.99984  0.99983  0.99982  0.99980  0.99979  0.99977  0.99976

  * THERMODYNAMIC PROPERTIES FITTED TO 20000.K

 NOTE. WEIGHT FRACTION OF FUEL IN TOTAL FUELS AND OF OXIDANT IN TOTAL OXIDANTS









               THERMODYNAMIC EQUILIBRIUM PROPERTIES AT ASSIGNED

                           TEMPERATURE AND PRESSURE

 CASE =                

             REACTANT                    WT FRACTION      ENERGY      TEMP
                                          (SEE NOTE)     KJ/KG-MOL      K  
             H2                           1.0000000         0.000      0.000

 O/F=    0.00000  %FUEL=100.000000  R,EQ.RATIO= 0.000000  PHI,EQ.RATIO= 0.000000

 THERMODYNAMIC PROPERTIES

 P, BAR            60.000   60.000   60.000   60.000   60.000   60.000   60.000   67.000
 T, K             2030.00  2040.00  2050.00  2060.00  2070.00  2080.00  2090.00  1950.00
 RHO, KG/CU M    7.1652-1 7.1300-1 7.0952-1 7.0606-1 7.0265-1 6.9926-1 6.9591-1 8.3299-1
 H, KJ/KG         26806.4  26979.0  27151.9  27325.1  27498.5  27672.3  27846.4  25434.3
 U, KJ/KG         18432.5  18563.8  18695.4  18827.2  18959.4  19091.8  19224.6  17391.0
 G, KJ/KG       -129196.7-129965.6-130735.3-131505.9-132277.4-133049.7-133822.8-122188.7
 S, KJ/(KG)(K)    76.8488  76.9336  77.0181  77.1024  77.1864  77.2702  77.3537  75.7041

 M, (1/n)           2.016    2.016    2.016    2.016    2.016    2.016    2.015    2.016
 (dLV/dLP)t      -1.00006 -1.00007 -1.00007 -1.00008 -1.00008 -1.00009 -1.00009 -1.00003
 (dLV/dLT)p        1.0017   1.0018   1.0020   1.0021   1.0022   1.0023   1.0025   1.0010
 Cp, KJ/(KG)(K)   17.2472  17.2755  17.3042  17.3334  17.3630  17.3932  17.4238  17.0282
 GAMMAs            1.3157   1.3151   1.3145   1.3139   1.3133   1.3127   1.3121   1.3204
 SON VEL,M/SEC     3319.2   3326.7   3334.1   3341.4   3348.8   3356.1   3363.4   3258.9

 TRANSPORT PROPERTIES (GASES ONLY)
   CONDUCTIVITY IN UNITS OF MILLIWATTS/(CM)(K)

 VISC,MILLIPOISE  0.33879  0.34002  0.34125  0.34248  0.34371  0.34494  0.34616  0.32894

  WITH EQUILIBRIUM REACTIONS

 Cp, KJ/(KG)(K)   17.2472  17.2755  17.3042  17.3334  17.3630  17.3932  17.4238  17.0282
 CONDUCTIVITY      8.3827   8.4314   8.4808   8.5308   8.5814   8.6327   8.6846   8.0055
 PRANDTL NUMBER    0.6971   0.6967   0.6963   0.6959   0.6954   0.6950   0.6945   0.6997

  WITH FROZEN REACTIONS

 Cp, KJ/(KG)(K)   17.0553  17.0724  17.0894  17.1064  17.1233  17.1401  17.1568  16.9151
 CONDUCTIVITY      8.2057   8.2434   8.2811   8.3189   8.3567   8.3945   8.4324   7.9046
 PRANDTL NUMBER    0.7042   0.7042   0.7042   0.7043   0.7043   0.7043   0.7043   0.7039

 MOLE FRACTIONS

 *H               0.00026  0.00027  0.00029  0.00031  0.00033  0.00036  0.00038  0.00014
 *H2              0.99974  0.99973  0.99971  0.99969  0.99967  0.99964  0.99962  0.99986

  * THERMODYNAMIC PROPERTIES FITTED TO 20000.K

 NOTE. WEIGHT FRACTION OF FUEL IN TOTAL FUELS AND OF OXIDANT IN TOTAL OXIDANTS









               THERMODYNAMIC EQUILIBRIUM PROPERTIES AT ASSIGNED

                           TEMPERATURE AND PRESSURE

 CASE =                

             REACTANT                    WT FRACTION      ENERGY      TEMP
                                          (SEE NOTE)     KJ/KG-MOL      K  
             H2                           1.0000000         0.000      0.000

 O/F=    0.00000  %FUEL=100.000000  R,EQ.RATIO= 0.000000  PHI,EQ.RATIO= 0.000000

 THERMODYNAMIC PROPERTIES

 P, BAR            67.000   67.000   67.000   67.000   67.000   67.000   67.000   67.000
 T, K             1960.00  1970.00  1980.00  1990.00  2000.00  2010.00  2020.00  2030.00
 RHO, KG/CU M    8.2873-1 8.2452-1 8.2035-1 8.1622-1 8.1214-1 8.0809-1 8.0409-1 8.0012-1
 H, KJ/KG         25604.7  25775.4  25946.3  26117.5  26288.9  26460.6  26632.6  26804.8
 U, KJ/KG         17520.1  17649.5  17779.1  17909.0  18039.1  18169.5  18300.1  18431.0
 G, KJ/KG       -122946.1-123704.4-124463.7-125223.7-125984.7-126746.5-127509.1-128272.6
 S, KJ/(KG)(K)    75.7913  75.8781  75.9646  76.0509  76.1368  76.2224  76.3078  76.3928

 M, (1/n)           2.016    2.016    2.016    2.016    2.016    2.016    2.016    2.016
 (dLV/dLP)t      -1.00004 -1.00004 -1.00004 -1.00005 -1.00005 -1.00005 -1.00006 -1.00006
 (dLV/dLT)p        1.0010   1.0011   1.0012   1.0013   1.0014   1.0014   1.0015   1.0016
 Cp, KJ/(KG)(K)   17.0532  17.0785  17.1040  17.1299  17.1561  17.1827  17.2096  17.2369
 GAMMAs            1.3199   1.3193   1.3187   1.3182   1.3176   1.3170   1.3164   1.3159
 SON VEL,M/SEC     3266.6   3274.2   3281.8   3289.4   3297.0   3304.5   3312.0   3319.4

 TRANSPORT PROPERTIES (GASES ONLY)
   CONDUCTIVITY IN UNITS OF MILLIWATTS/(CM)(K)

 VISC,MILLIPOISE  0.33018  0.33141  0.33264  0.33387  0.33510  0.33633  0.33756  0.33879

  WITH EQUILIBRIUM REACTIONS

 Cp, KJ/(KG)(K)   17.0532  17.0785  17.1040  17.1299  17.1561  17.1827  17.2096  17.2369
 CONDUCTIVITY      8.0498   8.0946   8.1399   8.1855   8.2317   8.2783   8.3254   8.3731
 PRANDTL NUMBER    0.6995   0.6992   0.6990   0.6987   0.6984   0.6981   0.6978   0.6974

  WITH FROZEN REACTIONS

 Cp, KJ/(KG)(K)   16.9329  16.9506  16.9683  16.9858  17.0033  17.0207  17.0380  17.0552
 CONDUCTIVITY      7.9421   7.9797   8.0173   8.0549   8.0925   8.1302   8.1679   8.2056
 PRANDTL NUMBER    0.7040   0.7040   0.7040   0.7041   0.7041   0.7041   0.7041   0.7042

 MOLE FRACTIONS

 *H               0.00015  0.00016  0.00017  0.00019  0.00020  0.00021  0.00023  0.00024
 *H2              0.99985  0.99984  0.99983  0.99981  0.99980  0.99979  0.99977  0.99976

  * THERMODYNAMIC PROPERTIES FITTED TO 20000.K

 NOTE. WEIGHT FRACTION OF FUEL IN TOTAL FUELS AND OF OXIDANT IN TOTAL OXIDANTS









               THERMODYNAMIC EQUILIBRIUM PROPERTIES AT ASSIGNED

                           TEMPERATURE AND PRESSURE

 CASE =                

             REACTANT                    WT FRACTION      ENERGY      TEMP
                                          (SEE NOTE)     KJ/KG-MOL      K  
             H2                           1.0000000         0.000      0.000

 O/F=    0.00000  %FUEL=100.000000  R,EQ.RATIO= 0.000000  PHI,EQ.RATIO= 0.000000

 THERMODYNAMIC PROPERTIES

 P, BAR            67.000   67.000   67.000   67.000   67.000   67.000   74.000   74.000
 T, K             2040.00  2050.00  2060.00  2070.00  2080.00  2090.00  1950.00  1960.00
 RHO, KG/CU M    7.9619-1 7.9230-1 7.8844-1 7.8463-1 7.8085-1 7.7710-1 9.2002-1 9.1532-1
 H, KJ/KG         26977.3  27150.1  27323.2  27496.5  27670.2  27844.1  25433.6  25603.9
 U, KJ/KG         18562.2  18693.7  18825.4  18957.4  19089.7  19222.3  17390.3  17519.3
 G, KJ/KG       -129037.0-129802.2-130568.2-131335.1-132102.8-132871.4-121389.4-122142.7
 S, KJ/(KG)(K)    76.4776  76.5621  76.6463  76.7302  76.8139  76.8974  75.2938  75.3809

 M, (1/n)           2.016    2.016    2.016    2.016    2.016    2.016    2.016    2.016
 (dLV/dLP)t      -1.00007 -1.00007 -1.00007 -1.00008 -1.00008 -1.00009 -1.00003 -1.00004
 (dLV/dLT)p        1.0017   1.0018   1.0020   1.0021   1.0022   1.0023   1.0009   1.0010
 Cp, KJ/(KG)(K)   17.2646  17.2926  17.3212  17.3501  17.3795  17.4094  17.0227  17.0474
 GAMMAs            1.3153   1.3147   1.3141   1.3135   1.3129   1.3123   1.3205   1.3200
 SON VEL,M/SEC     3326.9   3334.3   3341.7   3349.0   3356.4   3363.7   3259.1   3266.7

 TRANSPORT PROPERTIES (GASES ONLY)
   CONDUCTIVITY IN UNITS OF MILLIWATTS/(CM)(K)

 VISC,MILLIPOISE  0.34002  0.34125  0.34248  0.34371  0.34493  0.34616  0.32894  0.33018

  WITH EQUILIBRIUM REACTIONS

 Cp, KJ/(KG)(K)   17.2646  17.2926  17.3212  17.3501  17.3795  17.4094  17.0227  17.0474
 CONDUCTIVITY      8.4212   8.4700   8.5193   8.5692   8.6197   8.6709   8.0006   8.0445
 PRANDTL NUMBER    0.6971   0.6967   0.6963   0.6959   0.6955   0.6950   0.6999   0.6997

  WITH FROZEN REACTIONS

 Cp, KJ/(KG)(K)   17.0724  17.0894  17.1064  17.1233  17.1401  17.1568  16.9151  16.9329
 CONDUCTIVITY      8.2433   8.2810   8.3188   8.3566   8.3944   8.4322   7.9046   7.9420
 PRANDTL NUMBER    0.7042   0.7042   0.7043   0.7043   0.7043   0.7043   0.7039   0.7040

 MOLE FRACTIONS

 *H               0.00026  0.00028  0.00030  0.00032  0.00034  0.00036  0.00013  0.00014
 *H2              0.99974  0.99972  0.99970  0.99968  0.99966  0.99964  0.99987  0.99986

  * THERMODYNAMIC PROPERTIES FITTED TO 20000.K

 NOTE. WEIGHT FRACTION OF FUEL IN TOTAL FUELS AND OF OXIDANT IN TOTAL OXIDANTS









               THERMODYNAMIC EQUILIBRIUM PROPERTIES AT ASSIGNED

                           TEMPERATURE AND PRESSURE

 CASE =                

             REACTANT                    WT FRACTION      ENERGY      TEMP
                                          (SEE NOTE)     KJ/KG-MOL      K  
             H2                           1.0000000         0.000      0.000

 O/F=    0.00000  %FUEL=100.000000  R,EQ.RATIO= 0.000000  PHI,EQ.RATIO= 0.000000

 THERMODYNAMIC PROPERTIES

 P, BAR            74.000   74.000   74.000   74.000   74.000   74.000   74.000   74.000
 T, K             1970.00  1980.00  1990.00  2000.00  2010.00  2020.00  2030.00  2040.00
 RHO, KG/CU M    9.1067-1 9.0606-1 9.0151-1 8.9699-1 8.9252-1 8.8810-1 8.8372-1 8.7938-1
 H, KJ/KG         25774.5  25945.4  26116.5  26287.8  26459.4  26631.3  26803.5  26975.9
 U, KJ/KG         17648.6  17778.2  17908.0  18038.0  18168.3  18298.9  18429.8  18560.9
 G, KJ/KG       -122897.0-123652.1-124408.0-125164.9-125922.6-126681.1-127440.5-128200.7
 S, KJ/(KG)(K)    75.4678  75.5543  75.6405  75.7263  75.8119  75.8972  75.9823  76.0670

 M, (1/n)           2.016    2.016    2.016    2.016    2.016    2.016    2.016    2.016
 (dLV/dLP)t      -1.00004 -1.00004 -1.00004 -1.00005 -1.00005 -1.00005 -1.00006 -1.00006
 (dLV/dLT)p        1.0011   1.0011   1.0012   1.0013   1.0014   1.0015   1.0016   1.0017
 Cp, KJ/(KG)(K)   17.0723  17.0974  17.1229  17.1487  17.1748  17.2013  17.2280  17.2552
 GAMMAs            1.3194   1.3188   1.3183   1.3177   1.3171   1.3166   1.3160   1.3154
 SON VEL,M/SEC     3274.4   3282.0   3289.5   3297.1   3304.6   3312.1   3319.6   3327.1

 TRANSPORT PROPERTIES (GASES ONLY)
   CONDUCTIVITY IN UNITS OF MILLIWATTS/(CM)(K)

 VISC,MILLIPOISE  0.33141  0.33264  0.33387  0.33510  0.33633  0.33756  0.33879  0.34002

  WITH EQUILIBRIUM REACTIONS

 Cp, KJ/(KG)(K)   17.0723  17.0974  17.1229  17.1487  17.1748  17.2013  17.2280  17.2552
 CONDUCTIVITY      8.0890   8.1339   8.1791   8.2249   8.2710   8.3177   8.3648   8.4125
 PRANDTL NUMBER    0.6995   0.6992   0.6990   0.6987   0.6984   0.6981   0.6978   0.6974

  WITH FROZEN REACTIONS

 Cp, KJ/(KG)(K)   16.9506  16.9683  16.9858  17.0033  17.0207  17.0380  17.0552  17.0723
 CONDUCTIVITY      7.9796   8.0172   8.0548   8.0924   8.1301   8.1678   8.2055   8.2432
 PRANDTL NUMBER    0.7040   0.7040   0.7041   0.7041   0.7041   0.7041   0.7042   0.7042

 MOLE FRACTIONS

 *H               0.00015  0.00016  0.00018  0.00019  0.00020  0.00022  0.00023  0.00025
 *H2              0.99985  0.99984  0.99982  0.99981  0.99980  0.99978  0.99977  0.99975

  * THERMODYNAMIC PROPERTIES FITTED TO 20000.K

 NOTE. WEIGHT FRACTION OF FUEL IN TOTAL FUELS AND OF OXIDANT IN TOTAL OXIDANTS









               THERMODYNAMIC EQUILIBRIUM PROPERTIES AT ASSIGNED

                           TEMPERATURE AND PRESSURE

 CASE =                

             REACTANT                    WT FRACTION      ENERGY      TEMP
                                          (SEE NOTE)     KJ/KG-MOL      K  
             H2                           1.0000000         0.000      0.000

 O/F=    0.00000  %FUEL=100.000000  R,EQ.RATIO= 0.000000  PHI,EQ.RATIO= 0.000000

 THERMODYNAMIC PROPERTIES

 P, BAR            74.000   74.000   74.000   74.000   74.000   82.500   82.500   82.500
 T, K             2050.00  2060.00  2070.00  2080.00  2090.00  1950.00  1960.00  1970.00
 RHO, KG/CU M    8.7508-1 8.7083-1 8.6661-1 8.6244-1 8.5830-1 1.0257 0 1.0205 0 1.0153 0
 H, KJ/KG         27148.6  27321.5  27494.8  27668.3  27842.2  25432.8  25603.1  25773.6
 U, KJ/KG         18692.2  18823.9  18955.8  19088.0  19220.5  17389.5  17518.5  17647.7
 G, KJ/KG       -128961.8-129723.8-130486.6-131250.2-132014.6-120514.8-121263.6-122013.4
 S, KJ/(KG)(K)    76.1514  76.2356  76.3195  76.4031  76.4865  74.8449  74.9320  75.0188

 M, (1/n)           2.016    2.016    2.016    2.016    2.016    2.016    2.016    2.016
 (dLV/dLP)t      -1.00007 -1.00007 -1.00008 -1.00008 -1.00009 -1.00003 -1.00003 -1.00004
 (dLV/dLT)p        1.0018   1.0019   1.0020   1.0021   1.0022   1.0009   1.0009   1.0010
 Cp, KJ/(KG)(K)   17.2828  17.3107  17.3391  17.3679  17.3972  17.0170  17.0413  17.0658
 GAMMAs            1.3148   1.3143   1.3137   1.3131   1.3125   1.3206   1.3201   1.3195
 SON VEL,M/SEC     3334.5   3341.9   3349.3   3356.6   3363.9   3259.2   3266.8   3274.5

 TRANSPORT PROPERTIES (GASES ONLY)
   CONDUCTIVITY IN UNITS OF MILLIWATTS/(CM)(K)

 VISC,MILLIPOISE  0.34125  0.34247  0.34370  0.34493  0.34616  0.32894  0.33017  0.33141

  WITH EQUILIBRIUM REACTIONS

 Cp, KJ/(KG)(K)   17.2828  17.3107  17.3391  17.3679  17.3972  17.0170  17.0413  17.0658
 CONDUCTIVITY      8.4607   8.5094   8.5588   8.6087   8.6592   7.9954   8.0391   8.0831
 PRANDTL NUMBER    0.6971   0.6967   0.6963   0.6959   0.6955   0.7001   0.6999   0.6997

  WITH FROZEN REACTIONS

 Cp, KJ/(KG)(K)   17.0894  17.1064  17.1232  17.1401  17.1568  16.9151  16.9329  16.9506
 CONDUCTIVITY      8.2809   8.3187   8.3565   8.3943   8.4321   7.9045   7.9420   7.9795
 PRANDTL NUMBER    0.7042   0.7043   0.7043   0.7043   0.7043   0.7039   0.7040   0.7040

 MOLE FRACTIONS

 *H               0.00026  0.00028  0.00030  0.00032  0.00034  0.00013  0.00014  0.00015
 *H2              0.99974  0.99972  0.99970  0.99968  0.99966  0.99987  0.99986  0.99985

  * THERMODYNAMIC PROPERTIES FITTED TO 20000.K

 NOTE. WEIGHT FRACTION OF FUEL IN TOTAL FUELS AND OF OXIDANT IN TOTAL OXIDANTS









               THERMODYNAMIC EQUILIBRIUM PROPERTIES AT ASSIGNED

                           TEMPERATURE AND PRESSURE

 CASE =                

             REACTANT                    WT FRACTION      ENERGY      TEMP
                                          (SEE NOTE)     KJ/KG-MOL      K  
             H2                           1.0000000         0.000      0.000

 O/F=    0.00000  %FUEL=100.000000  R,EQ.RATIO= 0.000000  PHI,EQ.RATIO= 0.000000

 THERMODYNAMIC PROPERTIES

 P, BAR            82.500   82.500   82.500   82.500   82.500   82.500   82.500   82.500
 T, K             1980.00  1990.00  2000.00  2010.00  2020.00  2030.00  2040.00  2050.00
 RHO, KG/CU M    1.0101 0 1.0051 0 1.0000 0 9.9505-1 9.9012-1 9.8523-1 9.8039-1 9.7560-1
 H, KJ/KG         25944.4  26115.4  26286.7  26458.2  26630.0  26802.1  26974.4  27147.0
 U, KJ/KG         17777.2  17907.0  18036.9  18167.2  18297.7  18428.4  18559.4  18690.7
 G, KJ/KG       -122764.0-123515.5-124267.8-125021.0-125775.1-126530.0-127285.8-128042.4
 S, KJ/(KG)(K)    75.1053  75.1914  75.2773  75.3628  75.4481  75.5331  75.6177  75.7021

 M, (1/n)           2.016    2.016    2.016    2.016    2.016    2.016    2.016    2.016
 (dLV/dLP)t      -1.00004 -1.00004 -1.00004 -1.00005 -1.00005 -1.00005 -1.00006 -1.00006
 (dLV/dLT)p        1.0011   1.0011   1.0012   1.0013   1.0014   1.0015   1.0016   1.0017
 Cp, KJ/(KG)(K)   17.0906  17.1156  17.1410  17.1666  17.1926  17.2189  17.2455  17.2725
 GAMMAs            1.3190   1.3184   1.3179   1.3173   1.3167   1.3162   1.3156   1.3150
 SON VEL,M/SEC     3282.1   3289.7   3297.3   3304.8   3312.3   3319.8   3327.3   3334.7

 TRANSPORT PROPERTIES (GASES ONLY)
   CONDUCTIVITY IN UNITS OF MILLIWATTS/(CM)(K)

 VISC,MILLIPOISE  0.33264  0.33387  0.33510  0.33633  0.33756  0.33879  0.34002  0.34124

  WITH EQUILIBRIUM REACTIONS

 Cp, KJ/(KG)(K)   17.0906  17.1156  17.1410  17.1666  17.1926  17.2189  17.2455  17.2725
 CONDUCTIVITY      8.1276   8.1725   8.2178   8.2635   8.3097   8.3563   8.4034   8.4511
 PRANDTL NUMBER    0.6995   0.6992   0.6990   0.6987   0.6984   0.6981   0.6978   0.6974

  WITH FROZEN REACTIONS

 Cp, KJ/(KG)(K)   16.9683  16.9858  17.0033  17.0207  17.0380  17.0552  17.0723  17.0894
 CONDUCTIVITY      8.0171   8.0547   8.0924   8.1300   8.1677   8.2054   8.2431   8.2808
 PRANDTL NUMBER    0.7040   0.7041   0.7041   0.7041   0.7042   0.7042   0.7042   0.7042

 MOLE FRACTIONS

 *H               0.00016  0.00017  0.00018  0.00019  0.00021  0.00022  0.00023  0.00025
 *H2              0.99984  0.99983  0.99982  0.99981  0.99979  0.99978  0.99977  0.99975

  * THERMODYNAMIC PROPERTIES FITTED TO 20000.K

 NOTE. WEIGHT FRACTION OF FUEL IN TOTAL FUELS AND OF OXIDANT IN TOTAL OXIDANTS









               THERMODYNAMIC EQUILIBRIUM PROPERTIES AT ASSIGNED

                           TEMPERATURE AND PRESSURE

 CASE =                

             REACTANT                    WT FRACTION      ENERGY      TEMP
                                          (SEE NOTE)     KJ/KG-MOL      K  
             H2                           1.0000000         0.000      0.000

 O/F=    0.00000  %FUEL=100.000000  R,EQ.RATIO= 0.000000  PHI,EQ.RATIO= 0.000000

 THERMODYNAMIC PROPERTIES

 P, BAR            82.500   82.500   82.500   82.500   91.000   91.000   91.000   91.000
 T, K             2060.00  2070.00  2080.00  2090.00  1950.00  1960.00  1970.00  1980.00
 RHO, KG/CU M    9.7086-1 9.6616-1 9.6151-1 9.5690-1 1.1314 0 1.1256 0 1.1199 0 1.1142 0
 H, KJ/KG         27319.9  27493.0  27666.4  27840.1  25432.1  25602.3  25772.8  25943.5
 U, KJ/KG         18822.2  18954.1  19086.1  19218.5  17388.8  17517.8  17647.0  17776.4
 G, KJ/KG       -128799.8-129558.1-130317.2-131077.2-119726.1-120470.9-121216.6-121963.1
 S, KJ/(KG)(K)    75.7862  75.8701  75.9537  76.0370  74.4401  74.5271  74.6139  74.7003

 M, (1/n)           2.016    2.016    2.016    2.016    2.016    2.016    2.016    2.016
 (dLV/dLP)t      -1.00007 -1.00007 -1.00008 -1.00008 -1.00003 -1.00003 -1.00003 -1.00004
 (dLV/dLT)p        1.0018   1.0019   1.0020   1.0021   1.0008   1.0009   1.0010   1.0010
 Cp, KJ/(KG)(K)   17.2999  17.3276  17.3558  17.3844  17.0121  17.0361  17.0603  17.0847
 GAMMAs            1.3144   1.3139   1.3133   1.3127   1.3207   1.3202   1.3196   1.3191
 SON VEL,M/SEC     3342.1   3349.5   3356.8   3364.2   3259.3   3267.0   3274.6   3282.2

 TRANSPORT PROPERTIES (GASES ONLY)
   CONDUCTIVITY IN UNITS OF MILLIWATTS/(CM)(K)

 VISC,MILLIPOISE  0.34247  0.34370  0.34493  0.34615  0.32894  0.33017  0.33140  0.33264

  WITH EQUILIBRIUM REACTIONS

 Cp, KJ/(KG)(K)   17.2999  17.3276  17.3558  17.3844  17.0121  17.0361  17.0603  17.0847
 CONDUCTIVITY      8.4992   8.5479   8.5972   8.6471   7.9910   8.0344   8.0781   8.1223
 PRANDTL NUMBER    0.6971   0.6967   0.6963   0.6959   0.7003   0.7001   0.6999   0.6997

  WITH FROZEN REACTIONS

 Cp, KJ/(KG)(K)   17.1063  17.1232  17.1400  17.1567  16.9151  16.9329  16.9506  16.9682
 CONDUCTIVITY      8.3186   8.3563   8.3941   8.4319   7.9044   7.9419   7.9795   8.0171
 PRANDTL NUMBER    0.7043   0.7043   0.7043   0.7043   0.7039   0.7040   0.7040   0.7040

 MOLE FRACTIONS

 *H               0.00027  0.00028  0.00030  0.00032  0.00012  0.00013  0.00014  0.00015
 *H2              0.99973  0.99972  0.99970  0.99968  0.99988  0.99987  0.99986  0.99985

  * THERMODYNAMIC PROPERTIES FITTED TO 20000.K

 NOTE. WEIGHT FRACTION OF FUEL IN TOTAL FUELS AND OF OXIDANT IN TOTAL OXIDANTS









               THERMODYNAMIC EQUILIBRIUM PROPERTIES AT ASSIGNED

                           TEMPERATURE AND PRESSURE

 CASE =                

             REACTANT                    WT FRACTION      ENERGY      TEMP
                                          (SEE NOTE)     KJ/KG-MOL      K  
             H2                           1.0000000         0.000      0.000

 O/F=    0.00000  %FUEL=100.000000  R,EQ.RATIO= 0.000000  PHI,EQ.RATIO= 0.000000

 THERMODYNAMIC PROPERTIES

 P, BAR            91.000   91.000   91.000   91.000   91.000   91.000   91.000   91.000
 T, K             1990.00  2000.00  2010.00  2020.00  2030.00  2040.00  2050.00  2060.00
 RHO, KG/CU M    1.1086 0 1.1031 0 1.0976 0 1.0921 0 1.0867 0 1.0814 0 1.0761 0 1.0709 0
 H, KJ/KG         26114.5  26285.7  26457.2  26628.9  26800.9  26973.1  27145.7  27318.4
 U, KJ/KG         17906.1  18036.0  18166.2  18296.6  18427.3  18558.2  18689.4  18820.9
 G, KJ/KG       -122710.6-123458.9-124208.0-124958.0-125708.9-126460.6-127213.1-127966.5
 S, KJ/(KG)(K)    74.7865  74.8723  74.9578  75.0430  75.1280  75.2126  75.2970  75.3810

 M, (1/n)           2.016    2.016    2.016    2.016    2.016    2.016    2.016    2.016
 (dLV/dLP)t      -1.00004 -1.00004 -1.00005 -1.00005 -1.00005 -1.00006 -1.00006 -1.00006
 (dLV/dLT)p        1.0011   1.0012   1.0012   1.0013   1.0014   1.0015   1.0016   1.0017
 Cp, KJ/(KG)(K)   17.1094  17.1344  17.1596  17.1852  17.2110  17.2372  17.2637  17.2906
 GAMMAs            1.3185   1.3180   1.3174   1.3169   1.3163   1.3157   1.3152   1.3146
 SON VEL,M/SEC     3289.8   3297.4   3304.9   3312.5   3320.0   3327.4   3334.9   3342.3

 TRANSPORT PROPERTIES (GASES ONLY)
   CONDUCTIVITY IN UNITS OF MILLIWATTS/(CM)(K)

 VISC,MILLIPOISE  0.33387  0.33510  0.33633  0.33756  0.33878  0.34001  0.34124  0.34247

  WITH EQUILIBRIUM REACTIONS

 Cp, KJ/(KG)(K)   17.1094  17.1344  17.1596  17.1852  17.2110  17.2372  17.2637  17.2906
 CONDUCTIVITY      8.1668   8.2117   8.2571   8.3028   8.3490   8.3957   8.4428   8.4905
 PRANDTL NUMBER    0.6994   0.6992   0.6989   0.6987   0.6984   0.6981   0.6978   0.6974

  WITH FROZEN REACTIONS

 Cp, KJ/(KG)(K)   16.9858  17.0033  17.0207  17.0379  17.0552  17.0723  17.0893  17.1063
 CONDUCTIVITY      8.0547   8.0923   8.1300   8.1676   8.2053   8.2430   8.2807   8.3185
 PRANDTL NUMBER    0.7041   0.7041   0.7041   0.7042   0.7042   0.7042   0.7042   0.7043

 MOLE FRACTIONS

 *H               0.00016  0.00017  0.00018  0.00020  0.00021  0.00022  0.00024  0.00025
 *H2              0.99984  0.99983  0.99982  0.99980  0.99979  0.99978  0.99976  0.99975

  * THERMODYNAMIC PROPERTIES FITTED TO 20000.K

 NOTE. WEIGHT FRACTION OF FUEL IN TOTAL FUELS AND OF OXIDANT IN TOTAL OXIDANTS









               THERMODYNAMIC EQUILIBRIUM PROPERTIES AT ASSIGNED

                           TEMPERATURE AND PRESSURE

 CASE =                

             REACTANT                    WT FRACTION      ENERGY      TEMP
                                          (SEE NOTE)     KJ/KG-MOL      K  
             H2                           1.0000000         0.000      0.000

 O/F=    0.00000  %FUEL=100.000000  R,EQ.RATIO= 0.000000  PHI,EQ.RATIO= 0.000000

 THERMODYNAMIC PROPERTIES

 P, BAR            91.000   91.000   91.000   100.00   100.00   100.00   100.00   100.00
 T, K             2070.00  2080.00  2090.00  1950.00  1960.00  1970.00  1980.00  1990.00
 RHO, KG/CU M    1.0657 0 1.0606 0 1.0555 0 1.2433 0 1.2369 0 1.2306 0 1.2244 0 1.2183 0
 H, KJ/KG         27491.5  27664.8  27838.4  25431.5  25601.7  25772.1  25942.8  26113.7
 U, KJ/KG         18952.6  19084.6  19216.8  17388.2  17517.1  17646.3  17775.7  17905.3
 G, KJ/KG       -128720.7-129475.8-130231.7-118967.5-119708.4-120450.2-121192.9-121936.4
 S, KJ/(KG)(K)    75.4648  75.5484  75.6316  74.0508  74.1378  74.2245  74.3109  74.3970

 M, (1/n)           2.016    2.016    2.016    2.016    2.016    2.016    2.016    2.016
 (dLV/dLP)t      -1.00007 -1.00007 -1.00008 -1.00003 -1.00003 -1.00003 -1.00004 -1.00004
 (dLV/dLT)p        1.0018   1.0019   1.0020   1.0008   1.0009   1.0009   1.0010   1.0010
 Cp, KJ/(KG)(K)   17.3178  17.3455  17.3735  17.0077  17.0313  17.0552  17.0794  17.1037
 GAMMAs            1.3140   1.3135   1.3129   1.3208   1.3203   1.3197   1.3192   1.3186
 SON VEL,M/SEC     3349.7   3357.0   3364.4   3259.4   3267.1   3274.7   3282.3   3289.9

 TRANSPORT PROPERTIES (GASES ONLY)
   CONDUCTIVITY IN UNITS OF MILLIWATTS/(CM)(K)

 VISC,MILLIPOISE  0.34370  0.34492  0.34615  0.32894  0.33017  0.33140  0.33263  0.33387

  WITH EQUILIBRIUM REACTIONS

 Cp, KJ/(KG)(K)   17.3178  17.3455  17.3735  17.0077  17.0313  17.0552  17.0794  17.1037
 CONDUCTIVITY      8.5387   8.5874   8.6367   7.9869   8.0301   8.0736   8.1174   8.1616
 PRANDTL NUMBER    0.6971   0.6967   0.6963   0.7005   0.7003   0.7001   0.6999   0.6997

  WITH FROZEN REACTIONS

 Cp, KJ/(KG)(K)   17.1232  17.1400  17.1567  16.9151  16.9329  16.9506  16.9682  16.9858
 CONDUCTIVITY      8.3562   8.3940   8.4318   7.9044   7.9419   7.9795   8.0170   8.0546
 PRANDTL NUMBER    0.7043   0.7043   0.7043   0.7039   0.7040   0.7040   0.7040   0.7041

 MOLE FRACTIONS

 *H               0.00027  0.00029  0.00031  0.00011  0.00012  0.00013  0.00014  0.00015
 *H2              0.99973  0.99971  0.99969  0.99988  0.99988  0.99987  0.99986  0.99985

  * THERMODYNAMIC PROPERTIES FITTED TO 20000.K

 NOTE. WEIGHT FRACTION OF FUEL IN TOTAL FUELS AND OF OXIDANT IN TOTAL OXIDANTS









               THERMODYNAMIC EQUILIBRIUM PROPERTIES AT ASSIGNED

                           TEMPERATURE AND PRESSURE

 CASE =                

             REACTANT                    WT FRACTION      ENERGY      TEMP
                                          (SEE NOTE)     KJ/KG-MOL      K  
             H2                           1.0000000         0.000      0.000

 O/F=    0.00000  %FUEL=100.000000  R,EQ.RATIO= 0.000000  PHI,EQ.RATIO= 0.000000

 THERMODYNAMIC PROPERTIES

 P, BAR            100.00   100.00   100.00   100.00   100.00   100.00   100.00   100.00
 T, K             2000.00  2010.00  2020.00  2030.00  2040.00  2050.00  2060.00  2070.00
 RHO, KG/CU M    1.2122 0 1.2061 0 1.2002 0 1.1942 0 1.1884 0 1.1826 0 1.1768 0 1.1711 0
 H, KJ/KG         26284.8  26456.3  26627.9  26799.8  26972.0  27144.4  27317.1  27490.1
 U, KJ/KG         18035.2  18165.3  18295.6  18426.2  18557.1  18688.2  18819.6  18951.2
 G, KJ/KG       -122680.8-123426.1-124172.2-124919.2-125667.0-126415.6-127165.1-127915.4
 S, KJ/(KG)(K)    74.4828  74.5683  74.6535  74.7384  74.8230  74.9073  74.9914  75.0751

 M, (1/n)           2.016    2.016    2.016    2.016    2.016    2.016    2.016    2.016
 (dLV/dLP)t      -1.00004 -1.00004 -1.00005 -1.00005 -1.00005 -1.00006 -1.00006 -1.00006
 (dLV/dLT)p        1.0011   1.0012   1.0013   1.0013   1.0014   1.0015   1.0016   1.0017
 Cp, KJ/(KG)(K)   17.1283  17.1532  17.1784  17.2038  17.2296  17.2557  17.2821  17.3089
 GAMMAs            1.3181   1.3175   1.3170   1.3164   1.3159   1.3153   1.3147   1.3142
 SON VEL,M/SEC     3297.5   3305.1   3312.6   3320.1   3327.6   3335.0   3342.5   3349.9

 TRANSPORT PROPERTIES (GASES ONLY)
   CONDUCTIVITY IN UNITS OF MILLIWATTS/(CM)(K)

 VISC,MILLIPOISE  0.33510  0.33632  0.33755  0.33878  0.34001  0.34124  0.34247  0.34369

  WITH EQUILIBRIUM REACTIONS

 Cp, KJ/(KG)(K)   17.1283  17.1532  17.1784  17.2038  17.2296  17.2557  17.2821  17.3089
 CONDUCTIVITY      8.2062   8.2511   8.2965   8.3423   8.3886   8.4353   8.4825   8.5302
 PRANDTL NUMBER    0.6994   0.6992   0.6989   0.6986   0.6984   0.6981   0.6977   0.6974

  WITH FROZEN REACTIONS

 Cp, KJ/(KG)(K)   17.0033  17.0206  17.0379  17.0551  17.0723  17.0893  17.1063  17.1232
 CONDUCTIVITY      8.0923   8.1299   8.1675   8.2052   8.2429   8.2806   8.3184   8.3561
 PRANDTL NUMBER    0.7041   0.7041   0.7042   0.7042   0.7042   0.7042   0.7043   0.7043

 MOLE FRACTIONS

 *H               0.00016  0.00017  0.00019  0.00020  0.00021  0.00023  0.00024  0.00026
 *H2              0.99984  0.99983  0.99981  0.99980  0.99979  0.99977  0.99976  0.99974

  * THERMODYNAMIC PROPERTIES FITTED TO 20000.K

 NOTE. WEIGHT FRACTION OF FUEL IN TOTAL FUELS AND OF OXIDANT IN TOTAL OXIDANTS









               THERMODYNAMIC EQUILIBRIUM PROPERTIES AT ASSIGNED

                           TEMPERATURE AND PRESSURE

 CASE =                

             REACTANT                    WT FRACTION      ENERGY      TEMP
                                          (SEE NOTE)     KJ/KG-MOL      K  
             H2                           1.0000000         0.000      0.000

 O/F=    0.00000  %FUEL=100.000000  R,EQ.RATIO= 0.000000  PHI,EQ.RATIO= 0.000000

 THERMODYNAMIC PROPERTIES

 P, BAR            100.00   100.00   110.00   110.00   110.00   110.00   110.00   110.00
 T, K             2080.00  2090.00  1950.00  1960.00  1970.00  1980.00  1990.00  2000.00
 RHO, KG/CU M    1.1655 0 1.1599 0 1.3676 0 1.3606 0 1.3537 0 1.3469 0 1.3401 0 1.3334 0
 H, KJ/KG         27663.3  27836.8  25430.9  25601.0  25771.4  25942.0  26112.9  26284.0
 U, KJ/KG         19083.1  19215.3  17387.6  17516.5  17645.6  17775.0  17904.5  18034.3
 G, KJ/KG       -128666.6-129418.6-118200.9-118937.9-119675.7-120414.5-121154.1-121894.6
 S, KJ/(KG)(K)    75.1586  75.2418  73.6573  73.7443  73.8310  73.9174  74.0035  74.0893

 M, (1/n)           2.016    2.016    2.016    2.016    2.016    2.016    2.016    2.016
 (dLV/dLP)t      -1.00007 -1.00007 -1.00003 -1.00003 -1.00003 -1.00003 -1.00004 -1.00004
 (dLV/dLT)p        1.0018   1.0019   1.0008   1.0008   1.0009   1.0009   1.0010   1.0011
 Cp, KJ/(KG)(K)   17.3360  17.3635  17.0033  17.0267  17.0503  17.0742  17.0982  17.1225
 GAMMAs            1.3136   1.3130   1.3209   1.3203   1.3198   1.3193   1.3187   1.3182
 SON VEL,M/SEC     3357.2   3364.6   3259.5   3267.2   3274.8   3282.4   3290.1   3297.6

 TRANSPORT PROPERTIES (GASES ONLY)
   CONDUCTIVITY IN UNITS OF MILLIWATTS/(CM)(K)

 VISC,MILLIPOISE  0.34492  0.34615  0.32894  0.33017  0.33140  0.33263  0.33386  0.33509

  WITH EQUILIBRIUM REACTIONS

 Cp, KJ/(KG)(K)   17.3360  17.3635  17.0033  17.0267  17.0503  17.0742  17.0982  17.1225
 CONDUCTIVITY      8.5784   8.6271   7.9831   8.0259   8.0691   8.1127   8.1566   8.2008
 PRANDTL NUMBER    0.6970   0.6967   0.7006   0.7004   0.7003   0.7001   0.6999   0.6996

  WITH FROZEN REACTIONS

 Cp, KJ/(KG)(K)   17.1400  17.1567  16.9151  16.9329  16.9506  16.9682  16.9858  17.0032
 CONDUCTIVITY      8.3939   8.4317   7.9043   7.9419   7.9794   8.0170   8.0546   8.0922
 PRANDTL NUMBER    0.7043   0.7043   0.7039   0.7040   0.7040   0.7040   0.7041   0.7041

 MOLE FRACTIONS

 *H               0.00028  0.00029  0.00011  0.00012  0.00013  0.00014  0.00015  0.00016
 *H2              0.99972  0.99971  0.99989  0.99988  0.99987  0.99986  0.99985  0.99984

  * THERMODYNAMIC PROPERTIES FITTED TO 20000.K

 NOTE. WEIGHT FRACTION OF FUEL IN TOTAL FUELS AND OF OXIDANT IN TOTAL OXIDANTS









               THERMODYNAMIC EQUILIBRIUM PROPERTIES AT ASSIGNED

                           TEMPERATURE AND PRESSURE

 CASE =                

             REACTANT                    WT FRACTION      ENERGY      TEMP
                                          (SEE NOTE)     KJ/KG-MOL      K  
             H2                           1.0000000         0.000      0.000

 O/F=    0.00000  %FUEL=100.000000  R,EQ.RATIO= 0.000000  PHI,EQ.RATIO= 0.000000

 THERMODYNAMIC PROPERTIES

 P, BAR            110.00   110.00   110.00   110.00   110.00   110.00   110.00   110.00
 T, K             2010.00  2020.00  2030.00  2040.00  2050.00  2060.00  2070.00  2080.00
 RHO, KG/CU M    1.3267 0 1.3202 0 1.3137 0 1.3072 0 1.3008 0 1.2945 0 1.2882 0 1.2820 0
 H, KJ/KG         26455.3  26626.9  26798.8  26970.9  27143.2  27315.8  27488.7  27661.8
 U, KJ/KG         18164.4  18294.7  18425.2  18556.0  18687.1  18818.4  18949.9  19081.7
 G, KJ/KG       -122635.9-123378.0-124121.1-124864.9-125609.7-126355.2-127101.6-127848.8
 S, KJ/(KG)(K)    74.1747  74.2599  74.3448  74.4293  74.5136  74.5976  74.6813  74.7647

 M, (1/n)           2.016    2.016    2.016    2.016    2.016    2.016    2.016    2.016
 (dLV/dLP)t      -1.00004 -1.00004 -1.00005 -1.00005 -1.00005 -1.00006 -1.00006 -1.00007
 (dLV/dLT)p        1.0011   1.0012   1.0013   1.0014   1.0014   1.0015   1.0016   1.0017
 Cp, KJ/(KG)(K)   17.1470  17.1718  17.1969  17.2223  17.2479  17.2739  17.3002  17.3268
 GAMMAs            1.3176   1.3171   1.3165   1.3160   1.3154   1.3149   1.3143   1.3138
 SON VEL,M/SEC     3305.2   3312.7   3320.2   3327.7   3335.2   3342.6   3350.0   3357.4

 TRANSPORT PROPERTIES (GASES ONLY)
   CONDUCTIVITY IN UNITS OF MILLIWATTS/(CM)(K)

 VISC,MILLIPOISE  0.33632  0.33755  0.33878  0.34001  0.34124  0.34246  0.34369  0.34492

  WITH EQUILIBRIUM REACTIONS

 Cp, KJ/(KG)(K)   17.1470  17.1718  17.1969  17.2223  17.2479  17.2739  17.3002  17.3268
 CONDUCTIVITY      8.2454   8.2905   8.3359   8.3817   8.4280   8.4748   8.5220   8.5697
 PRANDTL NUMBER    0.6994   0.6992   0.6989   0.6986   0.6983   0.6980   0.6977   0.6974

  WITH FROZEN REACTIONS

 Cp, KJ/(KG)(K)   17.0206  17.0379  17.0551  17.0723  17.0893  17.1063  17.1232  17.1399
 CONDUCTIVITY      8.1298   8.1675   8.2052   8.2429   8.2806   8.3183   8.3561   8.3938
 PRANDTL NUMBER    0.7041   0.7042   0.7042   0.7042   0.7042   0.7043   0.7043   0.7043

 MOLE FRACTIONS

 *H               0.00017  0.00018  0.00019  0.00020  0.00022  0.00023  0.00025  0.00026
 *H2              0.99983  0.99982  0.99981  0.99980  0.99978  0.99977  0.99975  0.99974

  * THERMODYNAMIC PROPERTIES FITTED TO 20000.K

 NOTE. WEIGHT FRACTION OF FUEL IN TOTAL FUELS AND OF OXIDANT IN TOTAL OXIDANTS









               THERMODYNAMIC EQUILIBRIUM PROPERTIES AT ASSIGNED

                           TEMPERATURE AND PRESSURE

 CASE =                

             REACTANT                    WT FRACTION      ENERGY      TEMP
                                          (SEE NOTE)     KJ/KG-MOL      K  
             H2                           1.0000000         0.000      0.000

 O/F=    0.00000  %FUEL=100.000000  R,EQ.RATIO= 0.000000  PHI,EQ.RATIO= 0.000000

 THERMODYNAMIC PROPERTIES

 P, BAR            110.00   120.00   120.00   120.00   120.00   120.00   120.00   120.00
 T, K             2090.00  1950.00  1960.00  1970.00  1980.00  1990.00  2000.00  2010.00
 RHO, KG/CU M    1.2759 0 1.4919 0 1.4843 0 1.4768 0 1.4693 0 1.4619 0 1.4546 0 1.4474 0
 H, KJ/KG         27835.2  25430.4  25600.5  25770.8  25941.4  26112.2  26283.3  26454.5
 U, KJ/KG         19213.8  17387.1  17516.0  17645.0  17774.3  17903.9  18033.6  18163.6
 G, KJ/KG       -128596.9-117501.0-118234.4-118968.7-119703.9-120439.9-121176.7-121914.5
 S, KJ/(KG)(K)    74.8479  73.2981  73.3851  73.4718  73.5582  73.6443  73.7300  73.8154

 M, (1/n)           2.016    2.016    2.016    2.016    2.016    2.016    2.016    2.016
 (dLV/dLP)t      -1.00007 -1.00003 -1.00003 -1.00003 -1.00003 -1.00003 -1.00004 -1.00004
 (dLV/dLT)p        1.0018   1.0007   1.0008   1.0008   1.0009   1.0010   1.0010   1.0011
 Cp, KJ/(KG)(K)   17.3538  16.9996  17.0227  17.0461  17.0696  17.0934  17.1174  17.1416
 GAMMAs            1.3132   1.3209   1.3204   1.3199   1.3193   1.3188   1.3183   1.3177
 SON VEL,M/SEC     3364.8   3259.5   3267.2   3274.9   3282.5   3290.2   3297.7   3305.3

 TRANSPORT PROPERTIES (GASES ONLY)
   CONDUCTIVITY IN UNITS OF MILLIWATTS/(CM)(K)

 VISC,MILLIPOISE  0.34615  0.32894  0.33017  0.33140  0.33263  0.33386  0.33509  0.33632

  WITH EQUILIBRIUM REACTIONS

 Cp, KJ/(KG)(K)   17.3538  16.9996  17.0227  17.0461  17.0696  17.0934  17.1174  17.1416
 CONDUCTIVITY      8.6179   7.9797   8.0223   8.0653   8.1086   8.1522   8.1961   8.2405
 PRANDTL NUMBER    0.6970   0.7008   0.7006   0.7004   0.7002   0.7000   0.6998   0.6996

  WITH FROZEN REACTIONS

 Cp, KJ/(KG)(K)   17.1567  16.9150  16.9329  16.9506  16.9682  16.9858  17.0032  17.0206
 CONDUCTIVITY      8.4316   7.9043   7.9418   7.9794   8.0169   8.0545   8.0921   8.1298
 PRANDTL NUMBER    0.7043   0.7039   0.7040   0.7040   0.7040   0.7041   0.7041   0.7041

 MOLE FRACTIONS

 *H               0.00028  0.00010  0.00011  0.00012  0.00013  0.00014  0.00015  0.00016
 *H2              0.99972  0.99989  0.99989  0.99988  0.99987  0.99986  0.99985  0.99984

  * THERMODYNAMIC PROPERTIES FITTED TO 20000.K

 NOTE. WEIGHT FRACTION OF FUEL IN TOTAL FUELS AND OF OXIDANT IN TOTAL OXIDANTS









               THERMODYNAMIC EQUILIBRIUM PROPERTIES AT ASSIGNED

                           TEMPERATURE AND PRESSURE

 CASE =                

             REACTANT                    WT FRACTION      ENERGY      TEMP
                                          (SEE NOTE)     KJ/KG-MOL      K  
             H2                           1.0000000         0.000      0.000

 O/F=    0.00000  %FUEL=100.000000  R,EQ.RATIO= 0.000000  PHI,EQ.RATIO= 0.000000

 THERMODYNAMIC PROPERTIES

 P, BAR            120.00   120.00   120.00   120.00   120.00   120.00   120.00   120.00
 T, K             2020.00  2030.00  2040.00  2050.00  2060.00  2070.00  2080.00  2090.00
 RHO, KG/CU M    1.4402 0 1.4331 0 1.4261 0 1.4191 0 1.4122 0 1.4054 0 1.3986 0 1.3919 0
 H, KJ/KG         26626.1  26797.9  26969.9  27142.2  27314.7  27487.5  27660.6  27833.9
 U, KJ/KG         18293.9  18424.4  18555.1  18686.1  18817.3  18948.8  19080.5  19212.5
 G, KJ/KG       -122653.0-123392.5-124132.8-124873.9-125615.8-126358.6-127102.3-127846.7
 S, KJ/(KG)(K)    73.9006  73.9854  74.0699  74.1542  74.2381  74.3218  74.4052  74.4883

 M, (1/n)           2.016    2.016    2.016    2.016    2.016    2.016    2.016    2.016
 (dLV/dLP)t      -1.00004 -1.00005 -1.00005 -1.00005 -1.00006 -1.00006 -1.00006 -1.00007
 (dLV/dLT)p        1.0011   1.0012   1.0013   1.0014   1.0015   1.0016   1.0017   1.0017
 Cp, KJ/(KG)(K)   17.1661  17.1908  17.2159  17.2411  17.2667  17.2926  17.3189  17.3454
 GAMMAs            1.3172   1.3166   1.3161   1.3155   1.3150   1.3144   1.3139   1.3133
 SON VEL,M/SEC     3312.9   3320.4   3327.9   3335.3   3342.8   3350.2   3357.6   3364.9

 TRANSPORT PROPERTIES (GASES ONLY)
   CONDUCTIVITY IN UNITS OF MILLIWATTS/(CM)(K)

 VISC,MILLIPOISE  0.33755  0.33878  0.34001  0.34124  0.34246  0.34369  0.34492  0.34614

  WITH EQUILIBRIUM REACTIONS

 Cp, KJ/(KG)(K)   17.1661  17.1908  17.2159  17.2411  17.2667  17.2926  17.3189  17.3454
 CONDUCTIVITY      8.2852   8.3303   8.3758   8.4217   8.4680   8.5148   8.5621   8.6099
 PRANDTL NUMBER    0.6994   0.6991   0.6989   0.6986   0.6983   0.6980   0.6977   0.6973

  WITH FROZEN REACTIONS

 Cp, KJ/(KG)(K)   17.0379  17.0551  17.0722  17.0893  17.1063  17.1231  17.1399  17.1566
 CONDUCTIVITY      8.1674   8.2051   8.2428   8.2805   8.3182   8.3560   8.3937   8.4315
 PRANDTL NUMBER    0.7042   0.7042   0.7042   0.7042   0.7043   0.7043   0.7043   0.7043

 MOLE FRACTIONS

 *H               0.00017  0.00018  0.00019  0.00021  0.00022  0.00024  0.00025  0.00027
 *H2              0.99983  0.99982  0.99981  0.99979  0.99978  0.99976  0.99975  0.99973

  * THERMODYNAMIC PROPERTIES FITTED TO 20000.K

 NOTE. WEIGHT FRACTION OF FUEL IN TOTAL FUELS AND OF OXIDANT IN TOTAL OXIDANTS









               THERMODYNAMIC EQUILIBRIUM PROPERTIES AT ASSIGNED

                           TEMPERATURE AND PRESSURE

 CASE =                

             REACTANT                    WT FRACTION      ENERGY      TEMP
                                          (SEE NOTE)     KJ/KG-MOL      K  
             H2                           1.0000000         0.000      0.000

 O/F=    0.00000  %FUEL=100.000000  R,EQ.RATIO= 0.000000  PHI,EQ.RATIO= 0.000000

 THERMODYNAMIC PROPERTIES

 P, BAR            132.00   132.00   132.00   132.00   132.00   132.00   132.00   132.00
 T, K             1950.00  1960.00  1970.00  1980.00  1990.00  2000.00  2010.00  2020.00
 RHO, KG/CU M    1.6411 0 1.6328 0 1.6245 0 1.6163 0 1.6081 0 1.6001 0 1.5921 0 1.5842 0
 H, KJ/KG         25429.8  25599.9  25770.2  25940.7  26111.5  26282.5  26453.7  26625.2
 U, KJ/KG         17386.6  17515.4  17644.4  17773.7  17903.2  18032.9  18162.8  18293.0
 G, KJ/KG       -116734.4-117463.9-118194.2-118925.5-119657.5-120390.5-121124.3-121858.9
 S, KJ/(KG)(K)    72.9047  72.9917  73.0784  73.1647  73.2508  73.3365  73.4219  73.5070

 M, (1/n)           2.016    2.016    2.016    2.016    2.016    2.016    2.016    2.016
 (dLV/dLP)t      -1.00002 -1.00003 -1.00003 -1.00003 -1.00003 -1.00004 -1.00004 -1.00004
 (dLV/dLT)p        1.0007   1.0007   1.0008   1.0009   1.0009   1.0010   1.0010   1.0011
 Cp, KJ/(KG)(K)   16.9956  17.0185  17.0416  17.0649  17.0884  17.1121  17.1360  17.1601
 GAMMAs            1.3210   1.3205   1.3200   1.3194   1.3189   1.3184   1.3178   1.3173
 SON VEL,M/SEC     3259.6   3267.3   3275.0   3282.6   3290.3   3297.9   3305.4   3313.0

 TRANSPORT PROPERTIES (GASES ONLY)
   CONDUCTIVITY IN UNITS OF MILLIWATTS/(CM)(K)

 VISC,MILLIPOISE  0.32894  0.33017  0.33140  0.33263  0.33386  0.33509  0.33632  0.33755

  WITH EQUILIBRIUM REACTIONS

 Cp, KJ/(KG)(K)   16.9956  17.0185  17.0416  17.0649  17.0884  17.1121  17.1360  17.1601
 CONDUCTIVITY      7.9761   8.0185   8.0612   8.1042   8.1476   8.1912   8.2353   8.2796
 PRANDTL NUMBER    0.7009   0.7008   0.7006   0.7004   0.7002   0.7000   0.6998   0.6996

  WITH FROZEN REACTIONS

 Cp, KJ/(KG)(K)   16.9150  16.9328  16.9506  16.9682  16.9857  17.0032  17.0206  17.0379
 CONDUCTIVITY      7.9043   7.9418   7.9793   8.0169   8.0545   8.0921   8.1297   8.1674
 PRANDTL NUMBER    0.7039   0.7040   0.7040   0.7040   0.7041   0.7041   0.7041   0.7042

 MOLE FRACTIONS

 *H               0.00010  0.00011  0.00012  0.00012  0.00013  0.00014  0.00015  0.00016
 *H2              0.99990  0.99989  0.99988  0.99988  0.99987  0.99986  0.99985  0.99984

  * THERMODYNAMIC PROPERTIES FITTED TO 20000.K

 NOTE. WEIGHT FRACTION OF FUEL IN TOTAL FUELS AND OF OXIDANT IN TOTAL OXIDANTS









               THERMODYNAMIC EQUILIBRIUM PROPERTIES AT ASSIGNED

                           TEMPERATURE AND PRESSURE

 CASE =                

             REACTANT                    WT FRACTION      ENERGY      TEMP
                                          (SEE NOTE)     KJ/KG-MOL      K  
             H2                           1.0000000         0.000      0.000

 O/F=    0.00000  %FUEL=100.000000  R,EQ.RATIO= 0.000000  PHI,EQ.RATIO= 0.000000

 THERMODYNAMIC PROPERTIES

 P, BAR            132.00   132.00   132.00   132.00   132.00   132.00   132.00   148.00
 T, K             2030.00  2040.00  2050.00  2060.00  2070.00  2080.00  2090.00  1950.00
 RHO, KG/CU M    1.5764 0 1.5687 0 1.5610 0 1.5534 0 1.5459 0 1.5385 0 1.5311 0 1.8401 0
 H, KJ/KG         26796.9  26968.9  27141.1  27313.6  27486.3  27659.3  27832.5  25429.2
 U, KJ/KG         18423.4  18554.1  18685.0  18816.2  18947.6  19079.3  19211.2  17386.0
 G, KJ/KG       -122594.4-123330.7-124067.9-124805.9-125544.8-126284.5-127025.0-115814.2
 S, KJ/(KG)(K)    73.5918  73.6763  73.7605  73.8444  73.9281  74.0114  74.0945  72.4325

 M, (1/n)           2.016    2.016    2.016    2.016    2.016    2.016    2.016    2.016
 (dLV/dLP)t      -1.00004 -1.00005 -1.00005 -1.00005 -1.00006 -1.00006 -1.00006 -1.00002
 (dLV/dLT)p        1.0012   1.0012   1.0013   1.0014   1.0015   1.0016   1.0017   1.0007
 Cp, KJ/(KG)(K)   17.1845  17.2092  17.2341  17.2592  17.2847  17.3105  17.3366  16.9911
 GAMMAs            1.3167   1.3162   1.3157   1.3151   1.3146   1.3140   1.3135   1.3211
 SON VEL,M/SEC     3320.5   3328.0   3335.5   3342.9   3350.3   3357.7   3365.1   3259.7

 TRANSPORT PROPERTIES (GASES ONLY)
   CONDUCTIVITY IN UNITS OF MILLIWATTS/(CM)(K)

 VISC,MILLIPOISE  0.33878  0.34001  0.34123  0.34246  0.34369  0.34491  0.34614  0.32894

  WITH EQUILIBRIUM REACTIONS

 Cp, KJ/(KG)(K)   17.1845  17.2092  17.2341  17.2592  17.2847  17.3105  17.3366  16.9911
 CONDUCTIVITY      8.3244   8.3695   8.4150   8.4610   8.5074   8.5542   8.6015   7.9721
 PRANDTL NUMBER    0.6994   0.6991   0.6988   0.6986   0.6983   0.6980   0.6977   0.7011

  WITH FROZEN REACTIONS

 Cp, KJ/(KG)(K)   17.0551  17.0722  17.0893  17.1062  17.1231  17.1399  17.1566  16.9150
 CONDUCTIVITY      8.2050   8.2427   8.2804   8.3181   8.3559   8.3937   8.4314   7.9042
 PRANDTL NUMBER    0.7042   0.7042   0.7042   0.7043   0.7043   0.7043   0.7043   0.7039

 MOLE FRACTIONS

 *H               0.00017  0.00019  0.00020  0.00021  0.00022  0.00024  0.00026  0.00009
 *H2              0.99983  0.99981  0.99980  0.99979  0.99978  0.99976  0.99974  0.99991

  * THERMODYNAMIC PROPERTIES FITTED TO 20000.K

 NOTE. WEIGHT FRACTION OF FUEL IN TOTAL FUELS AND OF OXIDANT IN TOTAL OXIDANTS









               THERMODYNAMIC EQUILIBRIUM PROPERTIES AT ASSIGNED

                           TEMPERATURE AND PRESSURE

 CASE =                

             REACTANT                    WT FRACTION      ENERGY      TEMP
                                          (SEE NOTE)     KJ/KG-MOL      K  
             H2                           1.0000000         0.000      0.000

 O/F=    0.00000  %FUEL=100.000000  R,EQ.RATIO= 0.000000  PHI,EQ.RATIO= 0.000000

 THERMODYNAMIC PROPERTIES

 P, BAR            148.00   148.00   148.00   148.00   148.00   148.00   148.00   148.00
 T, K             1960.00  1970.00  1980.00  1990.00  2000.00  2010.00  2020.00  2030.00
 RHO, KG/CU M    1.8307 0 1.8214 0 1.8122 0 1.8031 0 1.7940 0 1.7851 0 1.7763 0 1.7675 0
 H, KJ/KG         25599.2  25769.5  25939.9  26110.6  26281.6  26452.8  26624.2  26795.8
 U, KJ/KG         17514.8  17643.7  17772.9  17902.4  18032.0  18161.9  18292.0  18422.4
 G, KJ/KG       -116538.9-117264.6-117991.1-118718.4-119446.6-120175.7-120905.6-121636.4
 S, KJ/(KG)(K)    72.5195  72.6061  72.6924  72.7784  72.8641  72.9495  73.0346  73.1193

 M, (1/n)           2.016    2.016    2.016    2.016    2.016    2.016    2.016    2.016
 (dLV/dLP)t      -1.00003 -1.00003 -1.00003 -1.00003 -1.00003 -1.00004 -1.00004 -1.00004
 (dLV/dLT)p        1.0007   1.0008   1.0008   1.0009   1.0009   1.0010   1.0010   1.0011
 Cp, KJ/(KG)(K)   17.0138  17.0366  17.0595  17.0827  17.1060  17.1296  17.1533  17.1773
 GAMMAs            1.3206   1.3200   1.3195   1.3190   1.3185   1.3179   1.3174   1.3169
 SON VEL,M/SEC     3267.4   3275.1   3282.8   3290.4   3298.0   3305.6   3313.1   3320.6

 TRANSPORT PROPERTIES (GASES ONLY)
   CONDUCTIVITY IN UNITS OF MILLIWATTS/(CM)(K)

 VISC,MILLIPOISE  0.33017  0.33140  0.33263  0.33386  0.33509  0.33632  0.33755  0.33878

  WITH EQUILIBRIUM REACTIONS

 Cp, KJ/(KG)(K)   17.0138  17.0366  17.0595  17.0827  17.1060  17.1296  17.1533  17.1773
 CONDUCTIVITY      8.0142   8.0566   8.0993   8.1424   8.1857   8.2293   8.2733   8.3177
 PRANDTL NUMBER    0.7009   0.7008   0.7006   0.7004   0.7003   0.7001   0.6998   0.6996

  WITH FROZEN REACTIONS

 Cp, KJ/(KG)(K)   16.9328  16.9506  16.9682  16.9857  17.0032  17.0206  17.0379  17.0551
 CONDUCTIVITY      7.9417   7.9793   8.0168   8.0544   8.0920   8.1297   8.1673   8.2050
 PRANDTL NUMBER    0.7040   0.7040   0.7040   0.7041   0.7041   0.7041   0.7042   0.7042

 MOLE FRACTIONS

 *H               0.00010  0.00011  0.00012  0.00013  0.00013  0.00014  0.00015  0.00016
 *H2              0.99990  0.99989  0.99988  0.99987  0.99987  0.99986  0.99985  0.99984

  * THERMODYNAMIC PROPERTIES FITTED TO 20000.K

 NOTE. WEIGHT FRACTION OF FUEL IN TOTAL FUELS AND OF OXIDANT IN TOTAL OXIDANTS









               THERMODYNAMIC EQUILIBRIUM PROPERTIES AT ASSIGNED

                           TEMPERATURE AND PRESSURE

 CASE =                

             REACTANT                    WT FRACTION      ENERGY      TEMP
                                          (SEE NOTE)     KJ/KG-MOL      K  
             H2                           1.0000000         0.000      0.000

 O/F=    0.00000  %FUEL=100.000000  R,EQ.RATIO= 0.000000  PHI,EQ.RATIO= 0.000000

 THERMODYNAMIC PROPERTIES

 P, BAR            148.00   148.00   148.00   148.00   148.00   148.00   165.00   165.00
 T, K             2040.00  2050.00  2060.00  2070.00  2080.00  2090.00  1950.00  1960.00
 RHO, KG/CU M    1.7588 0 1.7502 0 1.7417 0 1.7333 0 1.7250 0 1.7167 0 2.0514 0 2.0410 0
 H, KJ/KG         26967.7  27139.9  27312.2  27484.9  27657.8  27830.9  25428.6  25598.6
 U, KJ/KG         18553.0  18683.8  18814.9  18946.2  19077.8  19209.6  17385.5  17514.2
 G, KJ/KG       -122368.0-123100.5-123833.8-124567.9-125302.9-126038.7-114939.7-115659.9
 S, KJ/(KG)(K)    73.2038  73.2880  73.3718  73.4554  73.5388  73.6218  71.9837  72.0707

 M, (1/n)           2.016    2.016    2.016    2.016    2.016    2.016    2.016    2.016
 (dLV/dLP)t      -1.00004 -1.00005 -1.00005 -1.00005 -1.00006 -1.00006 -1.00002 -1.00002
 (dLV/dLT)p        1.0012   1.0012   1.0013   1.0014   1.0015   1.0016   1.0006   1.0007
 Cp, KJ/(KG)(K)   17.2015  17.2260  17.2507  17.2757  17.3010  17.3266  16.9871  17.0095
 GAMMAs            1.3163   1.3158   1.3153   1.3147   1.3142   1.3137   1.3212   1.3206
 SON VEL,M/SEC     3328.2   3335.6   3343.1   3350.5   3357.9   3365.3   3259.8   3267.5

 TRANSPORT PROPERTIES (GASES ONLY)
   CONDUCTIVITY IN UNITS OF MILLIWATTS/(CM)(K)

 VISC,MILLIPOISE  0.34000  0.34123  0.34246  0.34369  0.34491  0.34614  0.32894  0.33017

  WITH EQUILIBRIUM REACTIONS

 Cp, KJ/(KG)(K)   17.2015  17.2260  17.2507  17.2757  17.3010  17.3266  16.9871  17.0095
 CONDUCTIVITY      8.3624   8.4075   8.4530   8.4989   8.5452   8.5919   7.9685   8.0103
 PRANDTL NUMBER    0.6994   0.6991   0.6989   0.6986   0.6983   0.6980   0.7012   0.7011

  WITH FROZEN REACTIONS

 Cp, KJ/(KG)(K)   17.0722  17.0893  17.1062  17.1231  17.1399  17.1566  16.9150  16.9328
 CONDUCTIVITY      8.2426   8.2803   8.3181   8.3558   8.3936   8.4313   7.9042   7.9417
 PRANDTL NUMBER    0.7042   0.7042   0.7043   0.7043   0.7043   0.7043   0.7039   0.7040

 MOLE FRACTIONS

 *H               0.00017  0.00019  0.00020  0.00021  0.00023  0.00024  0.00009  0.00010
 *H2              0.99983  0.99981  0.99980  0.99979  0.99977  0.99976  0.99991  0.99990

  * THERMODYNAMIC PROPERTIES FITTED TO 20000.K

 NOTE. WEIGHT FRACTION OF FUEL IN TOTAL FUELS AND OF OXIDANT IN TOTAL OXIDANTS









               THERMODYNAMIC EQUILIBRIUM PROPERTIES AT ASSIGNED

                           TEMPERATURE AND PRESSURE

 CASE =                

             REACTANT                    WT FRACTION      ENERGY      TEMP
                                          (SEE NOTE)     KJ/KG-MOL      K  
             H2                           1.0000000         0.000      0.000

 O/F=    0.00000  %FUEL=100.000000  R,EQ.RATIO= 0.000000  PHI,EQ.RATIO= 0.000000

 THERMODYNAMIC PROPERTIES

 P, BAR            165.00   165.00   165.00   165.00   165.00   165.00   165.00   165.00
 T, K             1970.00  1980.00  1990.00  2000.00  2010.00  2020.00  2030.00  2040.00
 RHO, KG/CU M    2.0306 0 2.0203 0 2.0102 0 2.0001 0 1.9902 0 1.9803 0 1.9705 0 1.9609 0
 H, KJ/KG         25768.8  25939.2  26109.9  26280.8  26451.9  26623.3  26794.9  26966.7
 U, KJ/KG         17643.1  17772.3  17901.6  18031.3  18161.1  18291.2  18421.5  18552.0
 G, KJ/KG       -116381.0-117103.0-117825.9-118549.6-119274.2-119999.6-120725.9-121453.0
 S, KJ/(KG)(K)    72.1573  72.2436  72.3295  72.4152  72.5006  72.5856  72.6703  72.7548

 M, (1/n)           2.016    2.016    2.016    2.016    2.016    2.016    2.016    2.016
 (dLV/dLP)t      -1.00003 -1.00003 -1.00003 -1.00003 -1.00003 -1.00004 -1.00004 -1.00004
 (dLV/dLT)p        1.0007   1.0008   1.0008   1.0009   1.0009   1.0010   1.0010   1.0011
 Cp, KJ/(KG)(K)   17.0320  17.0547  17.0775  17.1006  17.1238  17.1472  17.1708  17.1947
 GAMMAs            1.3201   1.3196   1.3191   1.3186   1.3180   1.3175   1.3170   1.3165
 SON VEL,M/SEC     3275.2   3282.9   3290.5   3298.1   3305.7   3313.2   3320.8   3328.3

 TRANSPORT PROPERTIES (GASES ONLY)
   CONDUCTIVITY IN UNITS OF MILLIWATTS/(CM)(K)

 VISC,MILLIPOISE  0.33140  0.33263  0.33386  0.33509  0.33632  0.33755  0.33877  0.34000

  WITH EQUILIBRIUM REACTIONS

 Cp, KJ/(KG)(K)   17.0320  17.0547  17.0775  17.1006  17.1238  17.1472  17.1708  17.1947
 CONDUCTIVITY      8.0525   8.0949   8.1377   8.1807   8.2240   8.2677   8.3116   8.3560
 PRANDTL NUMBER    0.7009   0.7008   0.7006   0.7005   0.7003   0.7001   0.6999   0.6996

  WITH FROZEN REACTIONS

 Cp, KJ/(KG)(K)   16.9505  16.9682  16.9857  17.0032  17.0206  17.0379  17.0551  17.0722
 CONDUCTIVITY      7.9792   8.0168   8.0544   8.0920   8.1296   8.1672   8.2049   8.2426
 PRANDTL NUMBER    0.7040   0.7040   0.7041   0.7041   0.7041   0.7042   0.7042   0.7042

 MOLE FRACTIONS

 *H               0.00010  0.00011  0.00012  0.00013  0.00014  0.00015  0.00016  0.00017
 *H2              0.99990  0.99989  0.99988  0.99987  0.99986  0.99985  0.99984  0.99983

  * THERMODYNAMIC PROPERTIES FITTED TO 20000.K

 NOTE. WEIGHT FRACTION OF FUEL IN TOTAL FUELS AND OF OXIDANT IN TOTAL OXIDANTS









               THERMODYNAMIC EQUILIBRIUM PROPERTIES AT ASSIGNED

                           TEMPERATURE AND PRESSURE

 CASE =                

             REACTANT                    WT FRACTION      ENERGY      TEMP
                                          (SEE NOTE)     KJ/KG-MOL      K  
             H2                           1.0000000         0.000      0.000

 O/F=    0.00000  %FUEL=100.000000  R,EQ.RATIO= 0.000000  PHI,EQ.RATIO= 0.000000

 THERMODYNAMIC PROPERTIES

 P, BAR            165.00   165.00   165.00   165.00   165.00   180.00   180.00   180.00
 T, K             2050.00  2060.00  2070.00  2080.00  2090.00  1950.00  1960.00  1970.00
 RHO, KG/CU M    1.9513 0 1.9418 0 1.9324 0 1.9231 0 1.9139 0 2.2379 0 2.2265 0 2.2152 0
 H, KJ/KG         27138.7  27311.1  27483.6  27656.4  27829.5  25428.2  25598.1  25768.3
 U, KJ/KG         18682.8  18813.8  18945.0  19076.5  19208.3  17385.1  17513.7  17642.6
 G, KJ/KG       -122181.0-122909.8-123639.5-124369.9-125101.3-114239.8-114956.5-115674.0
 S, KJ/(KG)(K)    72.8389  72.9228  73.0063  73.0896  73.1726  71.6246  71.7115  71.7981

 M, (1/n)           2.016    2.016    2.016    2.016    2.016    2.016    2.016    2.016
 (dLV/dLP)t      -1.00004 -1.00005 -1.00005 -1.00005 -1.00006 -1.00002 -1.00002 -1.00002
 (dLV/dLT)p        1.0012   1.0013   1.0013   1.0014   1.0015   1.0006   1.0006   1.0007
 Cp, KJ/(KG)(K)   17.2187  17.2431  17.2676  17.2925  17.3176  16.9840  17.0062  17.0285
 GAMMAs            1.3159   1.3154   1.3149   1.3143   1.3138   1.3212   1.3207   1.3202
 SON VEL,M/SEC     3335.8   3343.2   3350.7   3358.1   3365.5   3259.9   3267.6   3275.3

 TRANSPORT PROPERTIES (GASES ONLY)
   CONDUCTIVITY IN UNITS OF MILLIWATTS/(CM)(K)

 VISC,MILLIPOISE  0.34123  0.34246  0.34368  0.34491  0.34614  0.32894  0.33017  0.33140

  WITH EQUILIBRIUM REACTIONS

 Cp, KJ/(KG)(K)   17.2187  17.2431  17.2676  17.2925  17.3176  16.9840  17.0062  17.0285
 CONDUCTIVITY      8.4007   8.4457   8.4912   8.5371   8.5833   7.9657   8.0074   8.0493
 PRANDTL NUMBER    0.6994   0.6992   0.6989   0.6986   0.6984   0.7013   0.7012   0.7011

  WITH FROZEN REACTIONS

 Cp, KJ/(KG)(K)   17.0892  17.1062  17.1231  17.1399  17.1566  16.9150  16.9328  16.9505
 CONDUCTIVITY      8.2803   8.3180   8.3557   8.3935   8.4312   7.9042   7.9417   7.9792
 PRANDTL NUMBER    0.7042   0.7043   0.7043   0.7043   0.7043   0.7039   0.7040   0.7040

 MOLE FRACTIONS

 *H               0.00018  0.00019  0.00020  0.00021  0.00023  0.00009  0.00009  0.00010
 *H2              0.99982  0.99981  0.99980  0.99979  0.99977  0.99991  0.99991  0.99990

  * THERMODYNAMIC PROPERTIES FITTED TO 20000.K

 NOTE. WEIGHT FRACTION OF FUEL IN TOTAL FUELS AND OF OXIDANT IN TOTAL OXIDANTS









               THERMODYNAMIC EQUILIBRIUM PROPERTIES AT ASSIGNED

                           TEMPERATURE AND PRESSURE

 CASE =                

             REACTANT                    WT FRACTION      ENERGY      TEMP
                                          (SEE NOTE)     KJ/KG-MOL      K  
             H2                           1.0000000         0.000      0.000

 O/F=    0.00000  %FUEL=100.000000  R,EQ.RATIO= 0.000000  PHI,EQ.RATIO= 0.000000

 THERMODYNAMIC PROPERTIES

 P, BAR            180.00   180.00   180.00   180.00   180.00   180.00   180.00   180.00
 T, K             1980.00  1990.00  2000.00  2010.00  2020.00  2030.00  2040.00  2050.00
 RHO, KG/CU M    2.2040 0 2.1929 0 2.1819 0 2.1711 0 2.1603 0 2.1497 0 2.1391 0 2.1287 0
 H, KJ/KG         25938.7  26109.3  26280.2  26451.3  26622.6  26794.1  26965.9  27137.9
 U, KJ/KG         17771.8  17901.1  18030.7  18160.5  18290.5  18420.7  18551.2  18681.9
 G, KJ/KG       -116392.4-117111.7-117831.8-118552.8-119274.7-119997.3-120720.9-121445.2
 S, KJ/(KG)(K)    71.8844  71.9704  72.0560  72.1413  72.2263  72.3111  72.3955  72.4796

 M, (1/n)           2.016    2.016    2.016    2.016    2.016    2.016    2.016    2.016
 (dLV/dLP)t      -1.00003 -1.00003 -1.00003 -1.00003 -1.00003 -1.00004 -1.00004 -1.00004
 (dLV/dLT)p        1.0007   1.0008   1.0008   1.0009   1.0009   1.0010   1.0011   1.0011
 Cp, KJ/(KG)(K)   17.0510  17.0736  17.0964  17.1194  17.1425  17.1659  17.1894  17.2132
 GAMMAs            1.3197   1.3191   1.3186   1.3181   1.3176   1.3171   1.3165   1.3160
 SON VEL,M/SEC     3282.9   3290.6   3298.2   3305.8   3313.3   3320.9   3328.4   3335.9

 TRANSPORT PROPERTIES (GASES ONLY)
   CONDUCTIVITY IN UNITS OF MILLIWATTS/(CM)(K)

 VISC,MILLIPOISE  0.33263  0.33386  0.33509  0.33632  0.33755  0.33877  0.34000  0.34123

  WITH EQUILIBRIUM REACTIONS

 Cp, KJ/(KG)(K)   17.0510  17.0736  17.0964  17.1194  17.1425  17.1659  17.1894  17.2132
 CONDUCTIVITY      8.0916   8.1341   8.1769   8.2199   8.2633   8.3070   8.3511   8.3955
 PRANDTL NUMBER    0.7009   0.7008   0.7006   0.7004   0.7002   0.7000   0.6998   0.6996

  WITH FROZEN REACTIONS

 Cp, KJ/(KG)(K)   16.9682  16.9857  17.0032  17.0206  17.0378  17.0551  17.0722  17.0892
 CONDUCTIVITY      8.0168   8.0544   8.0919   8.1296   8.1672   8.2049   8.2425   8.2802
 PRANDTL NUMBER    0.7040   0.7041   0.7041   0.7041   0.7042   0.7042   0.7042   0.7042

 MOLE FRACTIONS

 *H               0.00011  0.00011  0.00012  0.00013  0.00014  0.00015  0.00016  0.00017
 *H2              0.99989  0.99989  0.99988  0.99987  0.99986  0.99985  0.99984  0.99983

  * THERMODYNAMIC PROPERTIES FITTED TO 20000.K

 NOTE. WEIGHT FRACTION OF FUEL IN TOTAL FUELS AND OF OXIDANT IN TOTAL OXIDANTS









               THERMODYNAMIC EQUILIBRIUM PROPERTIES AT ASSIGNED

                           TEMPERATURE AND PRESSURE

 CASE =                

             REACTANT                    WT FRACTION      ENERGY      TEMP
                                          (SEE NOTE)     KJ/KG-MOL      K  
             H2                           1.0000000         0.000      0.000

 O/F=    0.00000  %FUEL=100.000000  R,EQ.RATIO= 0.000000  PHI,EQ.RATIO= 0.000000

 THERMODYNAMIC PROPERTIES

 P, BAR            180.00   180.00   180.00   180.00   200.00   200.00   200.00   200.00
 T, K             2060.00  2070.00  2080.00  2090.00  1950.00  1960.00  1970.00  1980.00
 RHO, KG/CU M    2.1183 0 2.1081 0 2.0979 0 2.0879 0 2.4866 0 2.4739 0 2.4613 0 2.4489 0
 H, KJ/KG         27310.2  27482.6  27655.4  27828.4  25427.7  25597.6  25767.7  25938.1
 U, KJ/KG         18812.9  18944.1  19075.5  19207.2  17384.6  17513.2  17642.1  17771.2
 G, KJ/KG       -122170.5-122896.5-123623.4-124351.1-113392.4-114104.7-114817.9-115531.9
 S, KJ/(KG)(K)    72.5634  72.6469  72.7302  72.8132  71.1898  71.2767  71.3633  71.4495

 M, (1/n)           2.016    2.016    2.016    2.016    2.016    2.016    2.016    2.016
 (dLV/dLP)t      -1.00005 -1.00005 -1.00005 -1.00005 -1.00002 -1.00002 -1.00002 -1.00003
 (dLV/dLT)p        1.0012   1.0013   1.0013   1.0014   1.0006   1.0006   1.0006   1.0007
 Cp, KJ/(KG)(K)   17.2372  17.2615  17.2859  17.3107  16.9805  17.0024  17.0245  17.0467
 GAMMAs            1.3155   1.3150   1.3144   1.3139   1.3213   1.3208   1.3203   1.3197
 SON VEL,M/SEC     3343.4   3350.8   3358.2   3365.6   3259.9   3267.7   3275.4   3283.0

 TRANSPORT PROPERTIES (GASES ONLY)
   CONDUCTIVITY IN UNITS OF MILLIWATTS/(CM)(K)

 VISC,MILLIPOISE  0.34246  0.34368  0.34491  0.34613  0.32893  0.33017  0.33140  0.33263

  WITH EQUILIBRIUM REACTIONS

 Cp, KJ/(KG)(K)   17.2372  17.2615  17.2859  17.3107  16.9805  17.0024  17.0245  17.0467
 CONDUCTIVITY      8.4402   8.4854   8.5309   8.5768   7.9625   8.0040   8.0457   8.0877
 PRANDTL NUMBER    0.6994   0.6991   0.6989   0.6986   0.7015   0.7014   0.7012   0.7011

  WITH FROZEN REACTIONS

 Cp, KJ/(KG)(K)   17.1062  17.1231  17.1398  17.1566  16.9150  16.9328  16.9505  16.9682
 CONDUCTIVITY      8.3179   8.3556   8.3934   8.4312   7.9041   7.9416   7.9792   8.0167
 PRANDTL NUMBER    0.7043   0.7043   0.7043   0.7043   0.7039   0.7040   0.7040   0.7040

 MOLE FRACTIONS

 *H               0.00018  0.00019  0.00021  0.00022  0.00008  0.00009  0.00009  0.00010
 *H2              0.99982  0.99981  0.99979  0.99978  0.99992  0.99991  0.99991  0.99990

  * THERMODYNAMIC PROPERTIES FITTED TO 20000.K

 NOTE. WEIGHT FRACTION OF FUEL IN TOTAL FUELS AND OF OXIDANT IN TOTAL OXIDANTS









               THERMODYNAMIC EQUILIBRIUM PROPERTIES AT ASSIGNED

                           TEMPERATURE AND PRESSURE

 CASE =                

             REACTANT                    WT FRACTION      ENERGY      TEMP
                                          (SEE NOTE)     KJ/KG-MOL      K  
             H2                           1.0000000         0.000      0.000

 O/F=    0.00000  %FUEL=100.000000  R,EQ.RATIO= 0.000000  PHI,EQ.RATIO= 0.000000

 THERMODYNAMIC PROPERTIES

 P, BAR            200.00   200.00   200.00   200.00   200.00   200.00   200.00   200.00
 T, K             1990.00  2000.00  2010.00  2020.00  2030.00  2040.00  2050.00  2060.00
 RHO, KG/CU M    2.4366 0 2.4244 0 2.4123 0 2.4004 0 2.3885 0 2.3768 0 2.3652 0 2.3537 0
 H, KJ/KG         26108.7  26279.5  26450.5  26621.8  26793.3  26965.0  27136.9  27309.1
 U, KJ/KG         17900.5  18030.0  18159.7  18289.7  18419.9  18550.3  18681.0  18811.9
 G, KJ/KG       -116246.9-116962.7-117679.3-118396.8-119115.1-119834.3-120554.3-121275.2
 S, KJ/(KG)(K)    71.5355  71.6211  71.7064  71.7914  71.8760  71.9604  72.0445  72.1283

 M, (1/n)           2.016    2.016    2.016    2.016    2.016    2.016    2.016    2.016
 (dLV/dLP)t      -1.00003 -1.00003 -1.00003 -1.00003 -1.00004 -1.00004 -1.00004 -1.00004
 (dLV/dLT)p        1.0007   1.0008   1.0008   1.0009   1.0009   1.0010   1.0011   1.0011
 Cp, KJ/(KG)(K)   17.0691  17.0916  17.1143  17.1371  17.1602  17.1834  17.2068  17.2305
 GAMMAs            1.3192   1.3187   1.3182   1.3177   1.3172   1.3166   1.3161   1.3156
 SON VEL,M/SEC     3290.7   3298.3   3305.9   3313.4   3321.0   3328.5   3336.0   3343.5

 TRANSPORT PROPERTIES (GASES ONLY)
   CONDUCTIVITY IN UNITS OF MILLIWATTS/(CM)(K)

 VISC,MILLIPOISE  0.33386  0.33509  0.33632  0.33754  0.33877  0.34000  0.34123  0.34245

  WITH EQUILIBRIUM REACTIONS

 Cp, KJ/(KG)(K)   17.0691  17.0916  17.1143  17.1371  17.1602  17.1834  17.2068  17.2305
 CONDUCTIVITY      8.1299   8.1725   8.2153   8.2583   8.3017   8.3455   8.3895   8.4339
 PRANDTL NUMBER    0.7009   0.7008   0.7006   0.7004   0.7003   0.7001   0.6999   0.6996

  WITH FROZEN REACTIONS

 Cp, KJ/(KG)(K)   16.9857  17.0032  17.0205  17.0378  17.0550  17.0722  17.0892  17.1062
 CONDUCTIVITY      8.0543   8.0919   8.1295   8.1671   8.2048   8.2425   8.2801   8.3178
 PRANDTL NUMBER    0.7041   0.7041   0.7041   0.7042   0.7042   0.7042   0.7043   0.7043

 MOLE FRACTIONS

 *H               0.00011  0.00012  0.00012  0.00013  0.00014  0.00015  0.00016  0.00017
 *H2              0.99989  0.99988  0.99988  0.99987  0.99986  0.99985  0.99984  0.99983

  * THERMODYNAMIC PROPERTIES FITTED TO 20000.K

 NOTE. WEIGHT FRACTION OF FUEL IN TOTAL FUELS AND OF OXIDANT IN TOTAL OXIDANTS









               THERMODYNAMIC EQUILIBRIUM PROPERTIES AT ASSIGNED

                           TEMPERATURE AND PRESSURE

 CASE =                

             REACTANT                    WT FRACTION      ENERGY      TEMP
                                          (SEE NOTE)     KJ/KG-MOL      K  
             H2                           1.0000000         0.000      0.000

 O/F=    0.00000  %FUEL=100.000000  R,EQ.RATIO= 0.000000  PHI,EQ.RATIO= 0.000000

 THERMODYNAMIC PROPERTIES

 P, BAR            200.00   200.00   200.00   225.00   225.00   225.00   225.00   225.00
 T, K             2070.00  2080.00  2090.00  1950.00  1960.00  1970.00  1980.00  1990.00
 RHO, KG/CU M    2.3423 0 2.3311 0 2.3199 0 2.7974 0 2.7831 0 2.7690 0 2.7550 0 2.7412 0
 H, KJ/KG         27481.5  27654.2  27827.1  25427.2  25597.0  25767.1  25937.5  26108.0
 U, KJ/KG         18943.0  19074.4  19206.0  17384.1  17512.7  17641.5  17770.5  17899.8
 G, KJ/KG       -121996.9-122719.4-123442.8-112445.0-113152.5-113860.8-114570.0-115280.1
 S, KJ/(KG)(K)    72.2118  72.2950  72.3779  70.7037  70.7906  70.8771  70.9634  71.0493

 M, (1/n)           2.016    2.016    2.016    2.016    2.016    2.016    2.016    2.016
 (dLV/dLP)t      -1.00005 -1.00005 -1.00005 -1.00002 -1.00002 -1.00002 -1.00002 -1.00003
 (dLV/dLT)p        1.0012   1.0013   1.0014   1.0005   1.0006   1.0006   1.0007   1.0007
 Cp, KJ/(KG)(K)   17.2543  17.2784  17.3028  16.9767  16.9984  17.0203  17.0422  17.0643
 GAMMAs            1.3151   1.3146   1.3140   1.3214   1.3208   1.3203   1.3198   1.3193
 SON VEL,M/SEC     3351.0   3358.4   3365.8   3260.0   3267.7   3275.4   3283.1   3290.8

 TRANSPORT PROPERTIES (GASES ONLY)
   CONDUCTIVITY IN UNITS OF MILLIWATTS/(CM)(K)

 VISC,MILLIPOISE  0.34368  0.34491  0.34613  0.32893  0.33017  0.33140  0.33263  0.33386

  WITH EQUILIBRIUM REACTIONS

 Cp, KJ/(KG)(K)   17.2543  17.2784  17.3028  16.9767  16.9984  17.0203  17.0422  17.0643
 CONDUCTIVITY      8.4786   8.5237   8.5692   7.9592   8.0004   8.0419   8.0836   8.1256
 PRANDTL NUMBER    0.6994   0.6992   0.6989   0.7016   0.7015   0.7014   0.7013   0.7011

  WITH FROZEN REACTIONS

 Cp, KJ/(KG)(K)   17.1230  17.1398  17.1565  16.9150  16.9328  16.9505  16.9681  16.9857
 CONDUCTIVITY      8.3556   8.3933   8.4311   7.9041   7.9416   7.9791   8.0167   8.0543
 PRANDTL NUMBER    0.7043   0.7043   0.7044   0.7039   0.7040   0.7040   0.7040   0.7041

 MOLE FRACTIONS

 *H               0.00018  0.00019  0.00021  0.00008  0.00008  0.00009  0.00009  0.00010
 *H2              0.99982  0.99981  0.99979  0.99992  0.99992  0.99991  0.99991  0.99990

  * THERMODYNAMIC PROPERTIES FITTED TO 20000.K

 NOTE. WEIGHT FRACTION OF FUEL IN TOTAL FUELS AND OF OXIDANT IN TOTAL OXIDANTS









               THERMODYNAMIC EQUILIBRIUM PROPERTIES AT ASSIGNED

                           TEMPERATURE AND PRESSURE

 CASE =                

             REACTANT                    WT FRACTION      ENERGY      TEMP
                                          (SEE NOTE)     KJ/KG-MOL      K  
             H2                           1.0000000         0.000      0.000

 O/F=    0.00000  %FUEL=100.000000  R,EQ.RATIO= 0.000000  PHI,EQ.RATIO= 0.000000

 THERMODYNAMIC PROPERTIES

 P, BAR            225.00   225.00   225.00   225.00   225.00   225.00   225.00   225.00
 T, K             2000.00  2010.00  2020.00  2030.00  2040.00  2050.00  2060.00  2070.00
 RHO, KG/CU M    2.7275 0 2.7139 0 2.7004 0 2.6871 0 2.6739 0 2.6609 0 2.6479 0 2.6351 0
 H, KJ/KG         26278.7  26449.7  26620.9  26792.3  26964.0  27135.9  27308.0  27480.4
 U, KJ/KG         18029.3  18159.0  18288.9  18419.0  18549.4  18680.0  18810.8  18941.9
 G, KJ/KG       -115991.0-116702.8-117415.4-118128.9-118843.2-119558.4-120274.4-120991.2
 S, KJ/(KG)(K)    71.1349  71.2201  71.3051  71.3898  71.4741  71.5582  71.6419  71.7254

 M, (1/n)           2.016    2.016    2.016    2.016    2.016    2.016    2.016    2.016
 (dLV/dLP)t      -1.00003 -1.00003 -1.00003 -1.00003 -1.00004 -1.00004 -1.00004 -1.00004
 (dLV/dLT)p        1.0007   1.0008   1.0008   1.0009   1.0009   1.0010   1.0011   1.0011
 Cp, KJ/(KG)(K)   17.0865  17.1089  17.1315  17.1542  17.1770  17.2001  17.2233  17.2468
 GAMMAs            1.3188   1.3183   1.3178   1.3173   1.3168   1.3162   1.3157   1.3152
 SON VEL,M/SEC     3298.4   3306.0   3313.6   3321.1   3328.7   3336.2   3343.6   3351.1

 TRANSPORT PROPERTIES (GASES ONLY)
   CONDUCTIVITY IN UNITS OF MILLIWATTS/(CM)(K)

 VISC,MILLIPOISE  0.33509  0.33631  0.33754  0.33877  0.34000  0.34123  0.34245  0.34368

  WITH EQUILIBRIUM REACTIONS

 Cp, KJ/(KG)(K)   17.0865  17.1089  17.1315  17.1542  17.1770  17.2001  17.2233  17.2468
 CONDUCTIVITY      8.1678   8.2103   8.2531   8.2961   8.3395   8.3832   8.4272   8.4715
 PRANDTL NUMBER    0.7010   0.7008   0.7007   0.7005   0.7003   0.7001   0.6999   0.6997

  WITH FROZEN REACTIONS

 Cp, KJ/(KG)(K)   17.0032  17.0205  17.0378  17.0550  17.0722  17.0892  17.1061  17.1230
 CONDUCTIVITY      8.0919   8.1295   8.1671   8.2047   8.2424   8.2801   8.3178   8.3555
 PRANDTL NUMBER    0.7041   0.7041   0.7042   0.7042   0.7042   0.7043   0.7043   0.7043

 MOLE FRACTIONS

 *H               0.00011  0.00012  0.00012  0.00013  0.00014  0.00015  0.00016  0.00017
 *H2              0.99989  0.99988  0.99988  0.99987  0.99986  0.99985  0.99984  0.99983

  * THERMODYNAMIC PROPERTIES FITTED TO 20000.K

 NOTE. WEIGHT FRACTION OF FUEL IN TOTAL FUELS AND OF OXIDANT IN TOTAL OXIDANTS









               THERMODYNAMIC EQUILIBRIUM PROPERTIES AT ASSIGNED

                           TEMPERATURE AND PRESSURE

 CASE =                

             REACTANT                    WT FRACTION      ENERGY      TEMP
                                          (SEE NOTE)     KJ/KG-MOL      K  
             H2                           1.0000000         0.000      0.000

 O/F=    0.00000  %FUEL=100.000000  R,EQ.RATIO= 0.000000  PHI,EQ.RATIO= 0.000000

 THERMODYNAMIC PROPERTIES

 P, BAR            225.00   225.00   250.00   250.00   250.00   250.00   250.00   250.00
 T, K             2080.00  2090.00  1950.00  1960.00  1970.00  1980.00  1990.00  2000.00
 RHO, KG/CU M    2.6225 0 2.6099 0 3.1083 0 3.0924 0 3.0767 0 3.0611 0 3.0457 0 3.0305 0
 H, KJ/KG         27652.9  27825.8  25426.7  25596.6  25766.6  25936.9  26107.4  26278.1
 U, KJ/KG         19073.2  19204.7  17383.7  17512.2  17641.0  17770.0  17899.2  18028.7
 G, KJ/KG       -121708.9-122427.4-111597.6-112300.7-113004.7-113709.6-114415.3-115121.8
 S, KJ/(KG)(K)    71.8086  71.8915  70.2689  70.3558  70.4423  70.5285  70.6144  70.7000

 M, (1/n)           2.016    2.016    2.016    2.016    2.016    2.016    2.016    2.016
 (dLV/dLP)t      -1.00005 -1.00005 -1.00002 -1.00002 -1.00002 -1.00002 -1.00002 -1.00003
 (dLV/dLT)p        1.0012   1.0013   1.0005   1.0005   1.0006   1.0006   1.0007   1.0007
 Cp, KJ/(KG)(K)   17.2705  17.2944  16.9735  16.9951  17.0167  17.0384  17.0603  17.0823
 GAMMAs            1.3147   1.3142   1.3214   1.3209   1.3204   1.3199   1.3194   1.3189
 SON VEL,M/SEC     3358.5   3366.0   3260.1   3267.8   3275.5   3283.2   3290.8   3298.5

 TRANSPORT PROPERTIES (GASES ONLY)
   CONDUCTIVITY IN UNITS OF MILLIWATTS/(CM)(K)

 VISC,MILLIPOISE  0.34490  0.34613  0.32893  0.33016  0.33139  0.33263  0.33385  0.33508

  WITH EQUILIBRIUM REACTIONS

 Cp, KJ/(KG)(K)   17.2705  17.2944  16.9735  16.9951  17.0167  17.0384  17.0603  17.0823
 CONDUCTIVITY      8.5162   8.5612   7.9563   7.9973   8.0386   8.0801   8.1219   8.1639
 PRANDTL NUMBER    0.6995   0.6992   0.7017   0.7016   0.7015   0.7014   0.7013   0.7011

  WITH FROZEN REACTIONS

 Cp, KJ/(KG)(K)   17.1398  17.1565  16.9150  16.9328  16.9505  16.9681  16.9857  17.0031
 CONDUCTIVITY      8.3932   8.4310   7.9041   7.9416   7.9791   8.0167   8.0542   8.0918
 PRANDTL NUMBER    0.7043   0.7044   0.7039   0.7040   0.7040   0.7040   0.7041   0.7041

 MOLE FRACTIONS

 *H               0.00018  0.00020  0.00007  0.00008  0.00008  0.00009  0.00010  0.00010
 *H2              0.99982  0.99980  0.99993  0.99992  0.99992  0.99991  0.99990  0.99990

  * THERMODYNAMIC PROPERTIES FITTED TO 20000.K

 NOTE. WEIGHT FRACTION OF FUEL IN TOTAL FUELS AND OF OXIDANT IN TOTAL OXIDANTS









               THERMODYNAMIC EQUILIBRIUM PROPERTIES AT ASSIGNED

                           TEMPERATURE AND PRESSURE

 CASE =                

             REACTANT                    WT FRACTION      ENERGY      TEMP
                                          (SEE NOTE)     KJ/KG-MOL      K  
             H2                           1.0000000         0.000      0.000

 O/F=    0.00000  %FUEL=100.000000  R,EQ.RATIO= 0.000000  PHI,EQ.RATIO= 0.000000

 THERMODYNAMIC PROPERTIES

 P, BAR            250.00   250.00   250.00   250.00   250.00   250.00   250.00   250.00
 T, K             2010.00  2020.00  2030.00  2040.00  2050.00  2060.00  2070.00  2080.00
 RHO, KG/CU M    3.0154 0 3.0005 0 2.9857 0 2.9710 0 2.9565 0 2.9422 0 2.9279 0 2.9138 0
 H, KJ/KG         26449.0  26620.2  26791.6  26963.2  27135.0  27307.1  27479.4  27651.9
 U, KJ/KG         18158.3  18288.2  18418.3  18548.6  18679.2  18809.9  18940.9  19072.2
 G, KJ/KG       -115829.3-116537.5-117246.7-117956.6-118667.5-119379.1-120091.6-120804.9
 S, KJ/(KG)(K)    70.7852  70.8702  70.9548  71.0391  71.1232  71.2069  71.2903  71.3735

 M, (1/n)           2.016    2.016    2.016    2.016    2.016    2.016    2.016    2.016
 (dLV/dLP)t      -1.00003 -1.00003 -1.00003 -1.00003 -1.00004 -1.00004 -1.00004 -1.00004
 (dLV/dLT)p        1.0007   1.0008   1.0008   1.0009   1.0010   1.0010   1.0011   1.0011
 Cp, KJ/(KG)(K)   17.1044  17.1266  17.1491  17.1716  17.1944  17.2173  17.2404  17.2638
 GAMMAs            1.3184   1.3179   1.3174   1.3168   1.3163   1.3158   1.3153   1.3148
 SON VEL,M/SEC     3306.1   3313.7   3321.2   3328.8   3336.3   3343.8   3351.2   3358.7

 TRANSPORT PROPERTIES (GASES ONLY)
   CONDUCTIVITY IN UNITS OF MILLIWATTS/(CM)(K)

 VISC,MILLIPOISE  0.33631  0.33754  0.33877  0.34000  0.34122  0.34245  0.34368  0.34490

  WITH EQUILIBRIUM REACTIONS

 Cp, KJ/(KG)(K)   17.1044  17.1266  17.1491  17.1716  17.1944  17.2173  17.2404  17.2638
 CONDUCTIVITY      8.2061   8.2486   8.2914   8.3345   8.3778   8.4215   8.4655   8.5098
 PRANDTL NUMBER    0.7010   0.7008   0.7007   0.7005   0.7003   0.7001   0.6999   0.6997

  WITH FROZEN REACTIONS

 Cp, KJ/(KG)(K)   17.0205  17.0378  17.0550  17.0721  17.0892  17.1061  17.1230  17.1398
 CONDUCTIVITY      8.1294   8.1670   8.2047   8.2423   8.2800   8.3177   8.3554   8.3932
 PRANDTL NUMBER    0.7041   0.7042   0.7042   0.7042   0.7043   0.7043   0.7043   0.7043

 MOLE FRACTIONS

 *H               0.00011  0.00012  0.00013  0.00013  0.00014  0.00015  0.00016  0.00017
 *H2              0.99989  0.99988  0.99987  0.99987  0.99986  0.99985  0.99984  0.99983

  * THERMODYNAMIC PROPERTIES FITTED TO 20000.K

 NOTE. WEIGHT FRACTION OF FUEL IN TOTAL FUELS AND OF OXIDANT IN TOTAL OXIDANTS









               THERMODYNAMIC EQUILIBRIUM PROPERTIES AT ASSIGNED

                           TEMPERATURE AND PRESSURE

 CASE =                

             REACTANT                    WT FRACTION      ENERGY      TEMP
                                          (SEE NOTE)     KJ/KG-MOL      K  
             H2                           1.0000000         0.000      0.000

 O/F=    0.00000  %FUEL=100.000000  R,EQ.RATIO= 0.000000  PHI,EQ.RATIO= 0.000000

 THERMODYNAMIC PROPERTIES

 P, BAR            250.00
 T, K             2090.00
 RHO, KG/CU M    2.8999 0
 H, KJ/KG         27824.6
 U, KJ/KG         19203.6
 G, KJ/KG       -121519.1
 S, KJ/(KG)(K)    71.4563

 M, (1/n)           2.016
 (dLV/dLP)t      -1.00005
 (dLV/dLT)p        1.0012
 Cp, KJ/(KG)(K)   17.2873
 GAMMAs            1.3143
 SON VEL,M/SEC     3366.1

 TRANSPORT PROPERTIES (GASES ONLY)
   CONDUCTIVITY IN UNITS OF MILLIWATTS/(CM)(K)

 VISC,MILLIPOISE  0.34613

  WITH EQUILIBRIUM REACTIONS

 Cp, KJ/(KG)(K)   17.2873
 CONDUCTIVITY      8.5545
 PRANDTL NUMBER    0.6995

  WITH FROZEN REACTIONS

 Cp, KJ/(KG)(K)   17.1565
 CONDUCTIVITY      8.4309
 PRANDTL NUMBER    0.7044

 MOLE FRACTIONS

 *H               0.00019
 *H2              0.99981

  * THERMODYNAMIC PROPERTIES FITTED TO 20000.K

 NOTE. WEIGHT FRACTION OF FUEL IN TOTAL FUELS AND OF OXIDANT IN TOTAL OXIDANTS



  
