
 *******************************************************************************

         NASA-GLENN CHEMICAL EQUILIBRIUM PROGRAM CEA2, MAY 21, 2004
                   BY  BONNIE MCBRIDE AND SANFORD GORDON
      REFS: NASA RP-1311, PART I, 1994 AND NASA RP-1311, PART II, 1996

 *******************************************************************************



  prob tp ions
  p,bar= 0.001,0.0011,0.0012,0.00132,0.00148,0.00165,0.0018,0.002,0.00225,0.0025,
 0.0028,0.0031,0.0035,0.0039,0.0044
  t,k= 375,380,385,390,395,400,405,410,415,420,425,430,435,440,445
  
  
  reac
  fuel H2                wt%=100.0000
  oxid H2                wt%=100.0000
  
  output short
  
  output massf
  
  output siunits
  
  output transport
  
 end





               THERMODYNAMIC EQUILIBRIUM PROPERTIES AT ASSIGNED

                           TEMPERATURE AND PRESSURE

 CASE =                

             REACTANT                    WT FRACTION      ENERGY      TEMP
                                          (SEE NOTE)     KJ/KG-MOL      K  
 FUEL        H2                           1.0000000         0.000      0.000
 OXIDANT     H2                           1.0000000         0.000      0.000

 O/F=    1.00000  %FUEL= 50.000000  R,EQ.RATIO= 0.000000  PHI,EQ.RATIO=-1.000000

 THERMODYNAMIC PROPERTIES

 P, BAR           0.00100  0.00100  0.00100  0.00100  0.00100  0.00100  0.00100  0.00100
 T, K              375.00   380.00   385.00   390.00   395.00   400.00   405.00   410.00
 RHO, KG/CU M    6.4654-5 6.3804-5 6.2975-5 6.2168-5 6.1381-5 6.0614-5 5.9865-5 5.9135-5
 H, KJ/KG         1106.47  1178.78  1251.12  1323.47  1395.84  1468.23  1540.64  1613.06
 U, KJ/KG         -440.21  -388.52  -336.81  -285.08  -233.33  -181.57  -129.78  -77.986
 G, KJ/KG        -35125.4 -35608.9 -36093.4 -36578.8 -37065.2 -37552.5 -38040.7 -38529.9
 S, KJ/(KG)(K)    96.6182  96.8097  96.9987  97.1854  97.3698  97.5519  97.7318  97.9095

 M, (1/n)           2.016    2.016    2.016    2.016    2.016    2.016    2.016    2.016
 (dLV/dLP)t      -1.00000 -1.00000 -1.00000 -1.00000 -1.00000 -1.00000 -1.00000 -1.00000
 (dLV/dLT)p        1.0000   1.0000   1.0000   1.0000   1.0000   1.0000   1.0000   1.0000
 Cp, KJ/(KG)(K)   14.4597  14.4644  14.4687  14.4726  14.4762  14.4795  14.4825  14.4852
 GAMMAs            1.3991   1.3989   1.3987   1.3986   1.3984   1.3983   1.3982   1.3981
 SON VEL,M/SEC     1471.0   1480.7   1490.3   1499.9   1509.4   1518.9   1528.3   1537.6

 TRANSPORT PROPERTIES (GASES ONLY)
   CONDUCTIVITY IN UNITS OF MILLIWATTS/(CM)(K)

 VISC,MILLIPOISE  0.00004  0.00023  0.00135  0.00737  0.03150  0.07520  0.10124  0.10898

  WITH EQUILIBRIUM REACTIONS

 Cp, KJ/(KG)(K)   14.4597  14.4644  14.4687  14.4726  14.4762  14.4795  14.4825  14.4852
 CONDUCTIVITY      0.0002   0.0014   0.0084   0.0479   0.2454   0.9080   1.7948   2.2104
 PRANDTL NUMBER    2.3377   2.3352   2.3184   2.2261   1.8581   1.1992   0.8169   0.7142

  WITH FROZEN REACTIONS

 Cp, KJ/(KG)(K)   14.4597  14.4644  14.4687  14.4726  14.4762  14.4795  14.4825  14.4852
 CONDUCTIVITY      0.0002   0.0014   0.0084   0.0479   0.2454   0.9080   1.7948   2.2104
 PRANDTL NUMBER    2.3377   2.3352   2.3184   2.2261   1.8581   1.1992   0.8169   0.7142

 MASS FRACTIONS

 *H2              1.00000  1.00000  1.00000  1.00000  1.00000  1.00000  1.00000  1.00000

  * THERMODYNAMIC PROPERTIES FITTED TO 20000.K

 NOTE. WEIGHT FRACTION OF FUEL IN TOTAL FUELS AND OF OXIDANT IN TOTAL OXIDANTS









               THERMODYNAMIC EQUILIBRIUM PROPERTIES AT ASSIGNED

                           TEMPERATURE AND PRESSURE

 CASE =                

             REACTANT                    WT FRACTION      ENERGY      TEMP
                                          (SEE NOTE)     KJ/KG-MOL      K  
 FUEL        H2                           1.0000000         0.000      0.000
 OXIDANT     H2                           1.0000000         0.000      0.000

 O/F=    1.00000  %FUEL= 50.000000  R,EQ.RATIO= 0.000000  PHI,EQ.RATIO=-1.000000

 THERMODYNAMIC PROPERTIES

 P, BAR           0.00100  0.00100  0.00100  0.00100  0.00100  0.00100  0.00100  0.00110
 T, K              415.00   420.00   425.00   430.00   435.00   440.00   445.00   375.00
 RHO, KG/CU M    5.8423-5 5.7727-5 5.7048-5 5.6385-5 5.5737-5 5.5103-5 5.4484-5 7.1120-5
 H, KJ/KG         1685.49  1757.93  1830.39  1902.85  1975.33  2047.81  2120.30  1106.47
 U, KJ/KG         -26.176   25.646   77.479   129.32   181.17   233.03   284.90  -440.21
 G, KJ/KG        -39019.8 -39510.7 -40002.4 -40495.0 -40988.4 -41482.7 -41977.7 -34977.9
 S, KJ/(KG)(K)    98.0851  98.2586  98.4301  98.5996  98.7672  98.9329  99.0967  96.2250

 M, (1/n)           2.016    2.016    2.016    2.016    2.016    2.016    2.016    2.016
 (dLV/dLP)t      -1.00000 -1.00000 -1.00000 -1.00000 -1.00000 -1.00000 -1.00000 -1.00000
 (dLV/dLT)p        1.0000   1.0000   1.0000   1.0000   1.0000   1.0000   1.0000   1.0000
 Cp, KJ/(KG)(K)   14.4877  14.4900  14.4920  14.4939  14.4957  14.4973  14.4988  14.4597
 GAMMAs            1.3980   1.3979   1.3978   1.3978   1.3977   1.3976   1.3976   1.3991
 SON VEL,M/SEC     1546.9   1556.1   1565.3   1574.5   1583.6   1592.6   1601.6   1471.0

 TRANSPORT PROPERTIES (GASES ONLY)
   CONDUCTIVITY IN UNITS OF MILLIWATTS/(CM)(K)

 VISC,MILLIPOISE  0.11134  0.11254  0.11351  0.11443  0.11533  0.11623  0.11713  0.00010

  WITH EQUILIBRIUM REACTIONS

 Cp, KJ/(KG)(K)   14.4877  14.4900  14.4920  14.4939  14.4957  14.4973  14.4988  14.4597
 CONDUCTIVITY      2.3286   2.3687   2.3922   2.4121   2.4313   2.4503   2.4692   0.0006
 PRANDTL NUMBER    0.6927   0.6884   0.6877   0.6876   0.6876   0.6877   0.6878   2.3367

  WITH FROZEN REACTIONS

 Cp, KJ/(KG)(K)   14.4877  14.4900  14.4920  14.4939  14.4957  14.4973  14.4988  14.4597
 CONDUCTIVITY      2.3286   2.3687   2.3922   2.4121   2.4313   2.4503   2.4692   0.0006
 PRANDTL NUMBER    0.6927   0.6884   0.6877   0.6876   0.6876   0.6877   0.6878   2.3367

 MASS FRACTIONS

 *H2              1.00000  1.00000  1.00000  1.00000  1.00000  1.00000  1.00000  1.00000

  * THERMODYNAMIC PROPERTIES FITTED TO 20000.K

 NOTE. WEIGHT FRACTION OF FUEL IN TOTAL FUELS AND OF OXIDANT IN TOTAL OXIDANTS









               THERMODYNAMIC EQUILIBRIUM PROPERTIES AT ASSIGNED

                           TEMPERATURE AND PRESSURE

 CASE =                

             REACTANT                    WT FRACTION      ENERGY      TEMP
                                          (SEE NOTE)     KJ/KG-MOL      K  
 FUEL        H2                           1.0000000         0.000      0.000
 OXIDANT     H2                           1.0000000         0.000      0.000

 O/F=    1.00000  %FUEL= 50.000000  R,EQ.RATIO= 0.000000  PHI,EQ.RATIO=-1.000000

 THERMODYNAMIC PROPERTIES

 P, BAR           0.00110  0.00110  0.00110  0.00110  0.00110  0.00110  0.00110  0.00110
 T, K              380.00   385.00   390.00   395.00   400.00   405.00   410.00   415.00
 RHO, KG/CU M    7.0184-5 6.9273-5 6.8384-5 6.7519-5 6.6675-5 6.5852-5 6.5049-5 6.4265-5
 H, KJ/KG         1178.78  1251.12  1323.47  1395.84  1468.23  1540.64  1613.06  1685.49
 U, KJ/KG         -388.52  -336.81  -285.08  -233.33  -181.57  -129.78  -77.986  -26.176
 G, KJ/KG        -35459.5 -35942.0 -36425.5 -36910.0 -37395.3 -37881.5 -38368.7 -38856.7
 S, KJ/(KG)(K)    96.4165  96.6056  96.7923  96.9767  97.1588  97.3387  97.5164  97.6920

 M, (1/n)           2.016    2.016    2.016    2.016    2.016    2.016    2.016    2.016
 (dLV/dLP)t      -1.00000 -1.00000 -1.00000 -1.00000 -1.00000 -1.00000 -1.00000 -1.00000
 (dLV/dLT)p        1.0000   1.0000   1.0000   1.0000   1.0000   1.0000   1.0000   1.0000
 Cp, KJ/(KG)(K)   14.4644  14.4687  14.4726  14.4762  14.4795  14.4825  14.4852  14.4877
 GAMMAs            1.3989   1.3987   1.3986   1.3984   1.3983   1.3982   1.3981   1.3980
 SON VEL,M/SEC     1480.7   1490.3   1499.9   1509.4   1518.9   1528.3   1537.6   1546.9

 TRANSPORT PROPERTIES (GASES ONLY)
   CONDUCTIVITY IN UNITS OF MILLIWATTS/(CM)(K)

 VISC,MILLIPOISE  0.00062  0.00358  0.01791  0.05705  0.09351  0.10653  0.11012  0.11157

  WITH EQUILIBRIUM REACTIONS

 Cp, KJ/(KG)(K)   14.4644  14.4687  14.4726  14.4762  14.4795  14.4825  14.4852  14.4877
 CONDUCTIVITY      0.0038   0.0227   0.1256   0.5629   1.4698   2.0926   2.2880   2.3452
 PRANDTL NUMBER    2.3292   2.2835   2.0634   1.4671   0.9212   0.7373   0.6972   0.6892

  WITH FROZEN REACTIONS

 Cp, KJ/(KG)(K)   14.4644  14.4687  14.4726  14.4762  14.4795  14.4825  14.4852  14.4877
 CONDUCTIVITY      0.0038   0.0227   0.1256   0.5629   1.4698   2.0926   2.2880   2.3452
 PRANDTL NUMBER    2.3292   2.2835   2.0634   1.4671   0.9212   0.7373   0.6972   0.6892

 MASS FRACTIONS

 *H2              1.00000  1.00000  1.00000  1.00000  1.00000  1.00000  1.00000  1.00000

  * THERMODYNAMIC PROPERTIES FITTED TO 20000.K

 NOTE. WEIGHT FRACTION OF FUEL IN TOTAL FUELS AND OF OXIDANT IN TOTAL OXIDANTS









               THERMODYNAMIC EQUILIBRIUM PROPERTIES AT ASSIGNED

                           TEMPERATURE AND PRESSURE

 CASE =                

             REACTANT                    WT FRACTION      ENERGY      TEMP
                                          (SEE NOTE)     KJ/KG-MOL      K  
 FUEL        H2                           1.0000000         0.000      0.000
 OXIDANT     H2                           1.0000000         0.000      0.000

 O/F=    1.00000  %FUEL= 50.000000  R,EQ.RATIO= 0.000000  PHI,EQ.RATIO=-1.000000

 THERMODYNAMIC PROPERTIES

 P, BAR           0.00110  0.00110  0.00110  0.00110  0.00110  0.00110  0.00120  0.00120
 T, K              420.00   425.00   430.00   435.00   440.00   445.00   375.00   380.00
 RHO, KG/CU M    6.3500-5 6.2753-5 6.2023-5 6.1310-5 6.0614-5 5.9932-5 7.7585-5 7.6564-5
 H, KJ/KG         1757.93  1830.39  1902.85  1975.33  2047.81  2120.30  1106.47  1178.78
 U, KJ/KG          25.646   77.479   129.32   181.17   233.03   284.90  -440.21  -388.52
 G, KJ/KG        -39345.6 -39835.3 -40326.0 -40817.4 -41309.7 -41802.8 -34843.3 -35323.1
 S, KJ/(KG)(K)    97.8655  98.0370  98.2065  98.3741  98.5398  98.7036  95.8661  96.0576

 M, (1/n)           2.016    2.016    2.016    2.016    2.016    2.016    2.016    2.016
 (dLV/dLP)t      -1.00000 -1.00000 -1.00000 -1.00000 -1.00000 -1.00000 -1.00000 -1.00000
 (dLV/dLT)p        1.0000   1.0000   1.0000   1.0000   1.0000   1.0000   1.0000   1.0000
 Cp, KJ/(KG)(K)   14.4900  14.4920  14.4939  14.4957  14.4973  14.4988  14.4597  14.4644
 GAMMAs            1.3979   1.3978   1.3978   1.3977   1.3976   1.3976   1.3991   1.3989
 SON VEL,M/SEC     1556.1   1565.3   1574.5   1583.6   1592.6   1601.6   1471.0   1480.7

 TRANSPORT PROPERTIES (GASES ONLY)
   CONDUCTIVITY IN UNITS OF MILLIWATTS/(CM)(K)

 VISC,MILLIPOISE  0.11259  0.11352  0.11443  0.11533  0.11623  0.11713  0.00010  0.00062

  WITH EQUILIBRIUM REACTIONS

 Cp, KJ/(KG)(K)   14.4900  14.4920  14.4939  14.4957  14.4973  14.4988  14.4597  14.4644
 CONDUCTIVITY      2.3722   2.3929   2.4123   2.4314   2.4503   2.4692   0.0006   0.0038
 PRANDTL NUMBER    0.6877   0.6875   0.6875   0.6876   0.6877   0.6878   2.3367   2.3292

  WITH FROZEN REACTIONS

 Cp, KJ/(KG)(K)   14.4900  14.4920  14.4939  14.4957  14.4973  14.4988  14.4597  14.4644
 CONDUCTIVITY      2.3722   2.3929   2.4123   2.4314   2.4503   2.4692   0.0006   0.0038
 PRANDTL NUMBER    0.6877   0.6875   0.6875   0.6876   0.6877   0.6878   2.3367   2.3292

 MASS FRACTIONS

 *H2              1.00000  1.00000  1.00000  1.00000  1.00000  1.00000  1.00000  1.00000

  * THERMODYNAMIC PROPERTIES FITTED TO 20000.K

 NOTE. WEIGHT FRACTION OF FUEL IN TOTAL FUELS AND OF OXIDANT IN TOTAL OXIDANTS









               THERMODYNAMIC EQUILIBRIUM PROPERTIES AT ASSIGNED

                           TEMPERATURE AND PRESSURE

 CASE =                

             REACTANT                    WT FRACTION      ENERGY      TEMP
                                          (SEE NOTE)     KJ/KG-MOL      K  
 FUEL        H2                           1.0000000         0.000      0.000
 OXIDANT     H2                           1.0000000         0.000      0.000

 O/F=    1.00000  %FUEL= 50.000000  R,EQ.RATIO= 0.000000  PHI,EQ.RATIO=-1.000000

 THERMODYNAMIC PROPERTIES

 P, BAR           0.00120  0.00120  0.00120  0.00120  0.00120  0.00120  0.00120  0.00120
 T, K              385.00   390.00   395.00   400.00   405.00   410.00   415.00   420.00
 RHO, KG/CU M    7.5570-5 7.4601-5 7.3657-5 7.2736-5 7.1838-5 7.0962-5 7.0107-5 6.9273-5
 H, KJ/KG         1251.12  1323.47  1395.84  1468.23  1540.64  1613.06  1685.49  1757.93
 U, KJ/KG         -336.81  -285.08  -233.33  -181.57  -129.78  -77.986  -26.176   25.646
 G, KJ/KG        -35803.9 -36285.6 -36768.2 -37251.7 -37736.2 -38221.5 -38707.8 -39194.9
 S, KJ/(KG)(K)    96.2467  96.4334  96.6178  96.7999  96.9798  97.1575  97.3331  97.5067

 M, (1/n)           2.016    2.016    2.016    2.016    2.016    2.016    2.016    2.016
 (dLV/dLP)t      -1.00000 -1.00000 -1.00000 -1.00000 -1.00000 -1.00000 -1.00000 -1.00000
 (dLV/dLT)p        1.0000   1.0000   1.0000   1.0000   1.0000   1.0000   1.0000   1.0000
 Cp, KJ/(KG)(K)   14.4687  14.4726  14.4762  14.4795  14.4825  14.4852  14.4877  14.4900
 GAMMAs            1.3987   1.3986   1.3984   1.3983   1.3982   1.3981   1.3980   1.3979
 SON VEL,M/SEC     1490.3   1499.9   1509.4   1518.9   1528.3   1537.6   1546.9   1556.1

 TRANSPORT PROPERTIES (GASES ONLY)
   CONDUCTIVITY IN UNITS OF MILLIWATTS/(CM)(K)

 VISC,MILLIPOISE  0.00358  0.01791  0.05705  0.09351  0.10653  0.11012  0.11157  0.11259

  WITH EQUILIBRIUM REACTIONS

 Cp, KJ/(KG)(K)   14.4687  14.4726  14.4762  14.4795  14.4825  14.4852  14.4877  14.4900
 CONDUCTIVITY      0.0227   0.1256   0.5629   1.4698   2.0926   2.2880   2.3452   2.3722
 PRANDTL NUMBER    2.2835   2.0634   1.4671   0.9212   0.7373   0.6972   0.6892   0.6877

  WITH FROZEN REACTIONS

 Cp, KJ/(KG)(K)   14.4687  14.4726  14.4762  14.4795  14.4825  14.4852  14.4877  14.4900
 CONDUCTIVITY      0.0227   0.1256   0.5629   1.4698   2.0926   2.2880   2.3452   2.3722
 PRANDTL NUMBER    2.2835   2.0634   1.4671   0.9212   0.7373   0.6972   0.6892   0.6877

 MASS FRACTIONS

 *H2              1.00000  1.00000  1.00000  1.00000  1.00000  1.00000  1.00000  1.00000

  * THERMODYNAMIC PROPERTIES FITTED TO 20000.K

 NOTE. WEIGHT FRACTION OF FUEL IN TOTAL FUELS AND OF OXIDANT IN TOTAL OXIDANTS









               THERMODYNAMIC EQUILIBRIUM PROPERTIES AT ASSIGNED

                           TEMPERATURE AND PRESSURE

 CASE =                

             REACTANT                    WT FRACTION      ENERGY      TEMP
                                          (SEE NOTE)     KJ/KG-MOL      K  
 FUEL        H2                           1.0000000         0.000      0.000
 OXIDANT     H2                           1.0000000         0.000      0.000

 O/F=    1.00000  %FUEL= 50.000000  R,EQ.RATIO= 0.000000  PHI,EQ.RATIO=-1.000000

 THERMODYNAMIC PROPERTIES

 P, BAR           0.00120  0.00120  0.00120  0.00120  0.00120  0.00132  0.00132  0.00132
 T, K              425.00   430.00   435.00   440.00   445.00   375.00   380.00   385.00
 RHO, KG/CU M    6.8458-5 6.7662-5 6.6884-5 6.6124-5 6.5381-5 8.5344-5 8.4221-5 8.3127-5
 H, KJ/KG         1830.39  1902.85  1975.33  2047.81  2120.30  1106.47  1178.78  1251.12
 U, KJ/KG          77.479   129.32   181.17   233.03   284.90  -440.21  -388.52  -336.81
 G, KJ/KG        -39682.8 -40171.6 -40661.3 -41151.8 -41643.1 -34695.9 -35173.7 -35652.5
 S, KJ/(KG)(K)    97.6782  97.8477  98.0152  98.1809  98.3447  95.4730  95.6645  95.8536

 M, (1/n)           2.016    2.016    2.016    2.016    2.016    2.016    2.016    2.016
 (dLV/dLP)t      -1.00000 -1.00000 -1.00000 -1.00000 -1.00000 -1.00000 -1.00000 -1.00000
 (dLV/dLT)p        1.0000   1.0000   1.0000   1.0000   1.0000   1.0000   1.0000   1.0000
 Cp, KJ/(KG)(K)   14.4920  14.4939  14.4957  14.4973  14.4988  14.4597  14.4644  14.4687
 GAMMAs            1.3978   1.3978   1.3977   1.3976   1.3976   1.3991   1.3989   1.3987
 SON VEL,M/SEC     1565.3   1574.5   1583.6   1592.6   1601.6   1471.0   1480.7   1490.3

 TRANSPORT PROPERTIES (GASES ONLY)
   CONDUCTIVITY IN UNITS OF MILLIWATTS/(CM)(K)

 VISC,MILLIPOISE  0.11352  0.11443  0.11533  0.11623  0.11713  0.00010  0.00062  0.00358

  WITH EQUILIBRIUM REACTIONS

 Cp, KJ/(KG)(K)   14.4920  14.4939  14.4957  14.4973  14.4988  14.4597  14.4644  14.4687
 CONDUCTIVITY      2.3929   2.4123   2.4314   2.4503   2.4692   0.0006   0.0038   0.0227
 PRANDTL NUMBER    0.6875   0.6875   0.6876   0.6877   0.6878   2.3367   2.3292   2.2835

  WITH FROZEN REACTIONS

 Cp, KJ/(KG)(K)   14.4920  14.4939  14.4957  14.4973  14.4988  14.4597  14.4644  14.4687
 CONDUCTIVITY      2.3929   2.4123   2.4314   2.4503   2.4692   0.0006   0.0038   0.0227
 PRANDTL NUMBER    0.6875   0.6875   0.6876   0.6877   0.6878   2.3367   2.3292   2.2835

 MASS FRACTIONS

 *H2              1.00000  1.00000  1.00000  1.00000  1.00000  1.00000  1.00000  1.00000

  * THERMODYNAMIC PROPERTIES FITTED TO 20000.K

 NOTE. WEIGHT FRACTION OF FUEL IN TOTAL FUELS AND OF OXIDANT IN TOTAL OXIDANTS









               THERMODYNAMIC EQUILIBRIUM PROPERTIES AT ASSIGNED

                           TEMPERATURE AND PRESSURE

 CASE =                

             REACTANT                    WT FRACTION      ENERGY      TEMP
                                          (SEE NOTE)     KJ/KG-MOL      K  
 FUEL        H2                           1.0000000         0.000      0.000
 OXIDANT     H2                           1.0000000         0.000      0.000

 O/F=    1.00000  %FUEL= 50.000000  R,EQ.RATIO= 0.000000  PHI,EQ.RATIO=-1.000000

 THERMODYNAMIC PROPERTIES

 P, BAR           0.00132  0.00132  0.00132  0.00132  0.00132  0.00132  0.00132  0.00132
 T, K              390.00   395.00   400.00   405.00   410.00   415.00   420.00   425.00
 RHO, KG/CU M    8.2061-5 8.1023-5 8.0010-5 7.9022-5 7.8058-5 7.7118-5 7.6200-5 7.5303-5
 H, KJ/KG         1323.47  1395.84  1468.23  1540.64  1613.06  1685.49  1757.93  1830.39
 U, KJ/KG         -285.08  -233.33  -181.57  -129.78  -77.986  -26.176   25.646   77.479
 G, KJ/KG        -36132.3 -36612.9 -37094.5 -37577.0 -38060.4 -38544.6 -39029.8 -39515.8
 S, KJ/(KG)(K)    96.0403  96.2247  96.4068  96.5867  96.7644  96.9400  97.1136  97.2850

 M, (1/n)           2.016    2.016    2.016    2.016    2.016    2.016    2.016    2.016
 (dLV/dLP)t      -1.00000 -1.00000 -1.00000 -1.00000 -1.00000 -1.00000 -1.00000 -1.00000
 (dLV/dLT)p        1.0000   1.0000   1.0000   1.0000   1.0000   1.0000   1.0000   1.0000
 Cp, KJ/(KG)(K)   14.4726  14.4762  14.4795  14.4825  14.4852  14.4877  14.4900  14.4920
 GAMMAs            1.3986   1.3984   1.3983   1.3982   1.3981   1.3980   1.3979   1.3978
 SON VEL,M/SEC     1499.9   1509.4   1518.9   1528.3   1537.6   1546.9   1556.1   1565.3

 TRANSPORT PROPERTIES (GASES ONLY)
   CONDUCTIVITY IN UNITS OF MILLIWATTS/(CM)(K)

 VISC,MILLIPOISE  0.01791  0.05705  0.09351  0.10653  0.11012  0.11157  0.11259  0.11352

  WITH EQUILIBRIUM REACTIONS

 Cp, KJ/(KG)(K)   14.4726  14.4762  14.4795  14.4825  14.4852  14.4877  14.4900  14.4920
 CONDUCTIVITY      0.1256   0.5629   1.4698   2.0926   2.2880   2.3452   2.3722   2.3929
 PRANDTL NUMBER    2.0634   1.4671   0.9212   0.7373   0.6972   0.6892   0.6877   0.6875

  WITH FROZEN REACTIONS

 Cp, KJ/(KG)(K)   14.4726  14.4762  14.4795  14.4825  14.4852  14.4877  14.4900  14.4920
 CONDUCTIVITY      0.1256   0.5629   1.4698   2.0926   2.2880   2.3452   2.3722   2.3929
 PRANDTL NUMBER    2.0634   1.4671   0.9212   0.7373   0.6972   0.6892   0.6877   0.6875

 MASS FRACTIONS

 *H2              1.00000  1.00000  1.00000  1.00000  1.00000  1.00000  1.00000  1.00000

  * THERMODYNAMIC PROPERTIES FITTED TO 20000.K

 NOTE. WEIGHT FRACTION OF FUEL IN TOTAL FUELS AND OF OXIDANT IN TOTAL OXIDANTS









               THERMODYNAMIC EQUILIBRIUM PROPERTIES AT ASSIGNED

                           TEMPERATURE AND PRESSURE

 CASE =                

             REACTANT                    WT FRACTION      ENERGY      TEMP
                                          (SEE NOTE)     KJ/KG-MOL      K  
 FUEL        H2                           1.0000000         0.000      0.000
 OXIDANT     H2                           1.0000000         0.000      0.000

 O/F=    1.00000  %FUEL= 50.000000  R,EQ.RATIO= 0.000000  PHI,EQ.RATIO=-1.000000

 THERMODYNAMIC PROPERTIES

 P, BAR           0.00132  0.00132  0.00132  0.00132  0.00148  0.00148  0.00148  0.00148
 T, K              430.00   435.00   440.00   445.00   375.00   380.00   385.00   390.00
 RHO, KG/CU M    7.4428-5 7.3572-5 7.2736-5 7.1919-5 9.5688-5 9.4429-5 9.3203-5 9.2008-5
 H, KJ/KG         1902.85  1975.33  2047.81  2120.30  1106.47  1178.78  1251.12  1323.47
 U, KJ/KG          129.32   181.17   233.03   284.90  -440.21  -388.52  -336.81  -285.08
 G, KJ/KG        -40002.6 -40490.3 -40978.8 -41468.2 -34519.0 -34994.4 -35470.8 -35948.2
 S, KJ/(KG)(K)    97.4546  97.6221  97.7878  97.9516  95.0011  95.1926  95.3817  95.5684

 M, (1/n)           2.016    2.016    2.016    2.016    2.016    2.016    2.016    2.016
 (dLV/dLP)t      -1.00000 -1.00000 -1.00000 -1.00000 -1.00000 -1.00000 -1.00000 -1.00000
 (dLV/dLT)p        1.0000   1.0000   1.0000   1.0000   1.0000   1.0000   1.0000   1.0000
 Cp, KJ/(KG)(K)   14.4939  14.4957  14.4973  14.4988  14.4597  14.4644  14.4687  14.4726
 GAMMAs            1.3978   1.3977   1.3976   1.3976   1.3991   1.3989   1.3987   1.3986
 SON VEL,M/SEC     1574.5   1583.6   1592.6   1601.6   1471.0   1480.7   1490.3   1499.9

 TRANSPORT PROPERTIES (GASES ONLY)
   CONDUCTIVITY IN UNITS OF MILLIWATTS/(CM)(K)

 VISC,MILLIPOISE  0.11443  0.11533  0.11623  0.11713  0.00010  0.00062  0.00358  0.01791

  WITH EQUILIBRIUM REACTIONS

 Cp, KJ/(KG)(K)   14.4939  14.4957  14.4973  14.4988  14.4597  14.4644  14.4687  14.4726
 CONDUCTIVITY      2.4123   2.4314   2.4503   2.4692   0.0006   0.0038   0.0227   0.1256
 PRANDTL NUMBER    0.6875   0.6876   0.6877   0.6878   2.3367   2.3292   2.2835   2.0634

  WITH FROZEN REACTIONS

 Cp, KJ/(KG)(K)   14.4939  14.4957  14.4973  14.4988  14.4597  14.4644  14.4687  14.4726
 CONDUCTIVITY      2.4123   2.4314   2.4503   2.4692   0.0006   0.0038   0.0227   0.1256
 PRANDTL NUMBER    0.6875   0.6876   0.6877   0.6878   2.3367   2.3292   2.2835   2.0634

 MASS FRACTIONS

 *H2              1.00000  1.00000  1.00000  1.00000  1.00000  1.00000  1.00000  1.00000

  * THERMODYNAMIC PROPERTIES FITTED TO 20000.K

 NOTE. WEIGHT FRACTION OF FUEL IN TOTAL FUELS AND OF OXIDANT IN TOTAL OXIDANTS









               THERMODYNAMIC EQUILIBRIUM PROPERTIES AT ASSIGNED

                           TEMPERATURE AND PRESSURE

 CASE =                

             REACTANT                    WT FRACTION      ENERGY      TEMP
                                          (SEE NOTE)     KJ/KG-MOL      K  
 FUEL        H2                           1.0000000         0.000      0.000
 OXIDANT     H2                           1.0000000         0.000      0.000

 O/F=    1.00000  %FUEL= 50.000000  R,EQ.RATIO= 0.000000  PHI,EQ.RATIO=-1.000000

 THERMODYNAMIC PROPERTIES

 P, BAR           0.00148  0.00148  0.00148  0.00148  0.00148  0.00148  0.00148  0.00148
 T, K              395.00   400.00   405.00   410.00   415.00   420.00   425.00   430.00
 RHO, KG/CU M    9.0844-5 8.9708-5 8.8600-5 8.7520-5 8.6466-5 8.5436-5 8.4431-5 8.3449-5
 H, KJ/KG         1395.84  1468.23  1540.64  1613.06  1685.49  1757.93  1830.39  1902.85
 U, KJ/KG         -233.33  -181.57  -129.78  -77.986  -26.176   25.646   77.479   129.32
 G, KJ/KG        -36426.5 -36905.7 -37385.9 -37866.9 -38348.8 -38831.6 -39315.2 -39799.7
 S, KJ/(KG)(K)    95.7528  95.9349  96.1148  96.2925  96.4681  96.6417  96.8132  96.9827

 M, (1/n)           2.016    2.016    2.016    2.016    2.016    2.016    2.016    2.016
 (dLV/dLP)t      -1.00000 -1.00000 -1.00000 -1.00000 -1.00000 -1.00000 -1.00000 -1.00000
 (dLV/dLT)p        1.0000   1.0000   1.0000   1.0000   1.0000   1.0000   1.0000   1.0000
 Cp, KJ/(KG)(K)   14.4762  14.4795  14.4825  14.4852  14.4877  14.4900  14.4920  14.4939
 GAMMAs            1.3984   1.3983   1.3982   1.3981   1.3980   1.3979   1.3978   1.3978
 SON VEL,M/SEC     1509.4   1518.9   1528.3   1537.6   1546.9   1556.1   1565.3   1574.5

 TRANSPORT PROPERTIES (GASES ONLY)
   CONDUCTIVITY IN UNITS OF MILLIWATTS/(CM)(K)

 VISC,MILLIPOISE  0.05705  0.09351  0.10653  0.11012  0.11157  0.11259  0.11352  0.11443

  WITH EQUILIBRIUM REACTIONS

 Cp, KJ/(KG)(K)   14.4762  14.4795  14.4825  14.4852  14.4877  14.4900  14.4920  14.4939
 CONDUCTIVITY      0.5629   1.4698   2.0926   2.2880   2.3452   2.3722   2.3929   2.4123
 PRANDTL NUMBER    1.4671   0.9212   0.7373   0.6972   0.6892   0.6877   0.6875   0.6875

  WITH FROZEN REACTIONS

 Cp, KJ/(KG)(K)   14.4762  14.4795  14.4825  14.4852  14.4877  14.4900  14.4920  14.4939
 CONDUCTIVITY      0.5629   1.4698   2.0926   2.2880   2.3452   2.3722   2.3929   2.4123
 PRANDTL NUMBER    1.4671   0.9212   0.7373   0.6972   0.6892   0.6877   0.6875   0.6875

 MASS FRACTIONS

 *H2              1.00000  1.00000  1.00000  1.00000  1.00000  1.00000  1.00000  1.00000

  * THERMODYNAMIC PROPERTIES FITTED TO 20000.K

 NOTE. WEIGHT FRACTION OF FUEL IN TOTAL FUELS AND OF OXIDANT IN TOTAL OXIDANTS









               THERMODYNAMIC EQUILIBRIUM PROPERTIES AT ASSIGNED

                           TEMPERATURE AND PRESSURE

 CASE =                

             REACTANT                    WT FRACTION      ENERGY      TEMP
                                          (SEE NOTE)     KJ/KG-MOL      K  
 FUEL        H2                           1.0000000         0.000      0.000
 OXIDANT     H2                           1.0000000         0.000      0.000

 O/F=    1.00000  %FUEL= 50.000000  R,EQ.RATIO= 0.000000  PHI,EQ.RATIO=-1.000000

 THERMODYNAMIC PROPERTIES

 P, BAR           0.00148  0.00148  0.00148  0.00165  0.00165  0.00165  0.00165  0.00165
 T, K              435.00   440.00   445.00   375.00   380.00   385.00   390.00   395.00
 RHO, KG/CU M    8.2490-5 8.1553-5 8.0636-5 1.0668-4 1.0528-4 1.0391-4 1.0258-4 1.0128-4
 H, KJ/KG         1975.33  2047.81  2120.30  1106.47  1178.78  1251.12  1323.47  1395.84
 U, KJ/KG          181.17   233.03   284.90  -440.21  -388.52  -336.81  -285.08  -233.33
 G, KJ/KG        -40285.0 -40771.2 -41258.2 -34350.8 -34824.0 -35298.2 -35773.3 -36249.4
 S, KJ/(KG)(K)    97.1502  97.3159  97.4797  94.5527  94.7442  94.9333  95.1200  95.3044

 M, (1/n)           2.016    2.016    2.016    2.016    2.016    2.016    2.016    2.016
 (dLV/dLP)t      -1.00000 -1.00000 -1.00000 -1.00000 -1.00000 -1.00000 -1.00000 -1.00000
 (dLV/dLT)p        1.0000   1.0000   1.0000   1.0000   1.0000   1.0000   1.0000   1.0000
 Cp, KJ/(KG)(K)   14.4957  14.4973  14.4988  14.4597  14.4644  14.4687  14.4726  14.4762
 GAMMAs            1.3977   1.3976   1.3976   1.3991   1.3989   1.3987   1.3986   1.3984
 SON VEL,M/SEC     1583.6   1592.6   1601.6   1471.0   1480.7   1490.3   1499.9   1509.4

 TRANSPORT PROPERTIES (GASES ONLY)
   CONDUCTIVITY IN UNITS OF MILLIWATTS/(CM)(K)

 VISC,MILLIPOISE  0.11533  0.11623  0.11713  0.00010  0.00062  0.00358  0.01791  0.05705

  WITH EQUILIBRIUM REACTIONS

 Cp, KJ/(KG)(K)   14.4957  14.4973  14.4988  14.4597  14.4644  14.4687  14.4726  14.4762
 CONDUCTIVITY      2.4314   2.4503   2.4692   0.0006   0.0038   0.0227   0.1256   0.5629
 PRANDTL NUMBER    0.6876   0.6877   0.6878   2.3367   2.3292   2.2835   2.0634   1.4671

  WITH FROZEN REACTIONS

 Cp, KJ/(KG)(K)   14.4957  14.4973  14.4988  14.4597  14.4644  14.4687  14.4726  14.4762
 CONDUCTIVITY      2.4314   2.4503   2.4692   0.0006   0.0038   0.0227   0.1256   0.5629
 PRANDTL NUMBER    0.6876   0.6877   0.6878   2.3367   2.3292   2.2835   2.0634   1.4671

 MASS FRACTIONS

 *H2              1.00000  1.00000  1.00000  1.00000  1.00000  1.00000  1.00000  1.00000

  * THERMODYNAMIC PROPERTIES FITTED TO 20000.K

 NOTE. WEIGHT FRACTION OF FUEL IN TOTAL FUELS AND OF OXIDANT IN TOTAL OXIDANTS









               THERMODYNAMIC EQUILIBRIUM PROPERTIES AT ASSIGNED

                           TEMPERATURE AND PRESSURE

 CASE =                

             REACTANT                    WT FRACTION      ENERGY      TEMP
                                          (SEE NOTE)     KJ/KG-MOL      K  
 FUEL        H2                           1.0000000         0.000      0.000
 OXIDANT     H2                           1.0000000         0.000      0.000

 O/F=    1.00000  %FUEL= 50.000000  R,EQ.RATIO= 0.000000  PHI,EQ.RATIO=-1.000000

 THERMODYNAMIC PROPERTIES

 P, BAR           0.00165  0.00165  0.00165  0.00165  0.00165  0.00165  0.00165  0.00165
 T, K              400.00   405.00   410.00   415.00   420.00   425.00   430.00   435.00
 RHO, KG/CU M    1.0001-4 9.8778-5 9.7573-5 9.6397-5 9.5250-5 9.4129-5 9.3035-5 9.1965-5
 H, KJ/KG         1468.23  1540.64  1613.06  1685.49  1757.93  1830.39  1902.85  1975.33
 U, KJ/KG         -181.57  -129.78  -77.986  -26.176   25.646   77.479   129.32   181.17
 G, KJ/KG        -36726.4 -37204.2 -37683.0 -38162.7 -38643.2 -39124.6 -39606.9 -40089.9
 S, KJ/(KG)(K)    95.4865  95.6664  95.8441  96.0197  96.1932  96.3647  96.5342  96.7018

 M, (1/n)           2.016    2.016    2.016    2.016    2.016    2.016    2.016    2.016
 (dLV/dLP)t      -1.00000 -1.00000 -1.00000 -1.00000 -1.00000 -1.00000 -1.00000 -1.00000
 (dLV/dLT)p        1.0000   1.0000   1.0000   1.0000   1.0000   1.0000   1.0000   1.0000
 Cp, KJ/(KG)(K)   14.4795  14.4825  14.4852  14.4877  14.4900  14.4920  14.4939  14.4957
 GAMMAs            1.3983   1.3982   1.3981   1.3980   1.3979   1.3978   1.3978   1.3977
 SON VEL,M/SEC     1518.9   1528.3   1537.6   1546.9   1556.1   1565.3   1574.5   1583.6

 TRANSPORT PROPERTIES (GASES ONLY)
   CONDUCTIVITY IN UNITS OF MILLIWATTS/(CM)(K)

 VISC,MILLIPOISE  0.09351  0.10653  0.11012  0.11157  0.11259  0.11352  0.11443  0.11533

  WITH EQUILIBRIUM REACTIONS

 Cp, KJ/(KG)(K)   14.4795  14.4825  14.4852  14.4877  14.4900  14.4920  14.4939  14.4957
 CONDUCTIVITY      1.4698   2.0926   2.2880   2.3452   2.3722   2.3929   2.4123   2.4314
 PRANDTL NUMBER    0.9212   0.7373   0.6972   0.6892   0.6877   0.6875   0.6875   0.6876

  WITH FROZEN REACTIONS

 Cp, KJ/(KG)(K)   14.4795  14.4825  14.4852  14.4877  14.4900  14.4920  14.4939  14.4957
 CONDUCTIVITY      1.4698   2.0926   2.2880   2.3452   2.3722   2.3929   2.4123   2.4314
 PRANDTL NUMBER    0.9212   0.7373   0.6972   0.6892   0.6877   0.6875   0.6875   0.6876

 MASS FRACTIONS

 *H2              1.00000  1.00000  1.00000  1.00000  1.00000  1.00000  1.00000  1.00000

  * THERMODYNAMIC PROPERTIES FITTED TO 20000.K

 NOTE. WEIGHT FRACTION OF FUEL IN TOTAL FUELS AND OF OXIDANT IN TOTAL OXIDANTS









               THERMODYNAMIC EQUILIBRIUM PROPERTIES AT ASSIGNED

                           TEMPERATURE AND PRESSURE

 CASE =                

             REACTANT                    WT FRACTION      ENERGY      TEMP
                                          (SEE NOTE)     KJ/KG-MOL      K  
 FUEL        H2                           1.0000000         0.000      0.000
 OXIDANT     H2                           1.0000000         0.000      0.000

 O/F=    1.00000  %FUEL= 50.000000  R,EQ.RATIO= 0.000000  PHI,EQ.RATIO=-1.000000

 THERMODYNAMIC PROPERTIES

 P, BAR           0.00165  0.00165  0.00180  0.00180  0.00180  0.00180  0.00180  0.00180
 T, K              440.00   445.00   375.00   380.00   385.00   390.00   395.00   400.00
 RHO, KG/CU M    9.0920-5 8.9899-5 1.1638-4 1.1485-4 1.1336-4 1.1190-4 1.1049-4 1.0910-4
 H, KJ/KG         2047.81  2120.30  1106.47  1178.78  1251.12  1323.47  1395.84  1468.23
 U, KJ/KG          233.03   284.90  -440.21  -388.52  -336.81  -285.08  -233.33  -181.57
 G, KJ/KG        -40573.9 -41058.6 -34216.2 -34687.6 -35160.0 -35633.4 -36107.6 -36582.8
 S, KJ/(KG)(K)    96.8674  97.0313  94.1938  94.3853  94.5744  94.7611  94.9455  95.1276

 M, (1/n)           2.016    2.016    2.016    2.016    2.016    2.016    2.016    2.016
 (dLV/dLP)t      -1.00000 -1.00000 -1.00000 -1.00000 -1.00000 -1.00000 -1.00000 -1.00000
 (dLV/dLT)p        1.0000   1.0000   1.0000   1.0000   1.0000   1.0000   1.0000   1.0000
 Cp, KJ/(KG)(K)   14.4973  14.4988  14.4597  14.4644  14.4687  14.4726  14.4762  14.4795
 GAMMAs            1.3976   1.3976   1.3991   1.3989   1.3987   1.3986   1.3984   1.3983
 SON VEL,M/SEC     1592.6   1601.6   1471.0   1480.7   1490.3   1499.9   1509.4   1518.9

 TRANSPORT PROPERTIES (GASES ONLY)
   CONDUCTIVITY IN UNITS OF MILLIWATTS/(CM)(K)

 VISC,MILLIPOISE  0.11623  0.11713  0.00010  0.00062  0.00358  0.01791  0.05705  0.09351

  WITH EQUILIBRIUM REACTIONS

 Cp, KJ/(KG)(K)   14.4973  14.4988  14.4597  14.4644  14.4687  14.4726  14.4762  14.4795
 CONDUCTIVITY      2.4503   2.4692   0.0006   0.0038   0.0227   0.1256   0.5629   1.4698
 PRANDTL NUMBER    0.6877   0.6878   2.3367   2.3292   2.2835   2.0634   1.4671   0.9212

  WITH FROZEN REACTIONS

 Cp, KJ/(KG)(K)   14.4973  14.4988  14.4597  14.4644  14.4687  14.4726  14.4762  14.4795
 CONDUCTIVITY      2.4503   2.4692   0.0006   0.0038   0.0227   0.1256   0.5629   1.4698
 PRANDTL NUMBER    0.6877   0.6878   2.3367   2.3292   2.2835   2.0634   1.4671   0.9212

 MASS FRACTIONS

 *H2              1.00000  1.00000  1.00000  1.00000  1.00000  1.00000  1.00000  1.00000

  * THERMODYNAMIC PROPERTIES FITTED TO 20000.K

 NOTE. WEIGHT FRACTION OF FUEL IN TOTAL FUELS AND OF OXIDANT IN TOTAL OXIDANTS









               THERMODYNAMIC EQUILIBRIUM PROPERTIES AT ASSIGNED

                           TEMPERATURE AND PRESSURE

 CASE =                

             REACTANT                    WT FRACTION      ENERGY      TEMP
                                          (SEE NOTE)     KJ/KG-MOL      K  
 FUEL        H2                           1.0000000         0.000      0.000
 OXIDANT     H2                           1.0000000         0.000      0.000

 O/F=    1.00000  %FUEL= 50.000000  R,EQ.RATIO= 0.000000  PHI,EQ.RATIO=-1.000000

 THERMODYNAMIC PROPERTIES

 P, BAR           0.00180  0.00180  0.00180  0.00180  0.00180  0.00180  0.00180  0.00180
 T, K              405.00   410.00   415.00   420.00   425.00   430.00   435.00   440.00
 RHO, KG/CU M    1.0776-4 1.0644-4 1.0516-4 1.0391-4 1.0269-4 1.0149-4 1.0033-4 9.9186-5
 H, KJ/KG         1540.64  1613.06  1685.49  1757.93  1830.39  1902.85  1975.33  2047.81
 U, KJ/KG         -129.78  -77.986  -26.176   25.646   77.479   129.32   181.17   233.03
 G, KJ/KG        -37058.9 -37535.9 -38013.7 -38492.5 -38972.1 -39452.5 -39933.8 -40416.0
 S, KJ/(KG)(K)    95.3075  95.4852  95.6608  95.8343  96.0058  96.1753  96.3429  96.5086

 M, (1/n)           2.016    2.016    2.016    2.016    2.016    2.016    2.016    2.016
 (dLV/dLP)t      -1.00000 -1.00000 -1.00000 -1.00000 -1.00000 -1.00000 -1.00000 -1.00000
 (dLV/dLT)p        1.0000   1.0000   1.0000   1.0000   1.0000   1.0000   1.0000   1.0000
 Cp, KJ/(KG)(K)   14.4825  14.4852  14.4877  14.4900  14.4920  14.4939  14.4957  14.4973
 GAMMAs            1.3982   1.3981   1.3980   1.3979   1.3978   1.3978   1.3977   1.3976
 SON VEL,M/SEC     1528.3   1537.6   1546.9   1556.1   1565.3   1574.5   1583.6   1592.6

 TRANSPORT PROPERTIES (GASES ONLY)
   CONDUCTIVITY IN UNITS OF MILLIWATTS/(CM)(K)

 VISC,MILLIPOISE  0.10653  0.11012  0.11157  0.11259  0.11352  0.11443  0.11533  0.11623

  WITH EQUILIBRIUM REACTIONS

 Cp, KJ/(KG)(K)   14.4825  14.4852  14.4877  14.4900  14.4920  14.4939  14.4957  14.4973
 CONDUCTIVITY      2.0926   2.2880   2.3452   2.3722   2.3929   2.4123   2.4314   2.4503
 PRANDTL NUMBER    0.7373   0.6972   0.6892   0.6877   0.6875   0.6875   0.6876   0.6877

  WITH FROZEN REACTIONS

 Cp, KJ/(KG)(K)   14.4825  14.4852  14.4877  14.4900  14.4920  14.4939  14.4957  14.4973
 CONDUCTIVITY      2.0926   2.2880   2.3452   2.3722   2.3929   2.4123   2.4314   2.4503
 PRANDTL NUMBER    0.7373   0.6972   0.6892   0.6877   0.6875   0.6875   0.6876   0.6877

 MASS FRACTIONS

 *H2              1.00000  1.00000  1.00000  1.00000  1.00000  1.00000  1.00000  1.00000

  * THERMODYNAMIC PROPERTIES FITTED TO 20000.K

 NOTE. WEIGHT FRACTION OF FUEL IN TOTAL FUELS AND OF OXIDANT IN TOTAL OXIDANTS









               THERMODYNAMIC EQUILIBRIUM PROPERTIES AT ASSIGNED

                           TEMPERATURE AND PRESSURE

 CASE =                

             REACTANT                    WT FRACTION      ENERGY      TEMP
                                          (SEE NOTE)     KJ/KG-MOL      K  
 FUEL        H2                           1.0000000         0.000      0.000
 OXIDANT     H2                           1.0000000         0.000      0.000

 O/F=    1.00000  %FUEL= 50.000000  R,EQ.RATIO= 0.000000  PHI,EQ.RATIO=-1.000000

 THERMODYNAMIC PROPERTIES

 P, BAR           0.00180  0.00200  0.00200  0.00200  0.00200  0.00200  0.00200  0.00200
 T, K              445.00   375.00   380.00   385.00   390.00   395.00   400.00   405.00
 RHO, KG/CU M    9.8071-5 1.2931-4 1.2761-4 1.2595-4 1.2434-4 1.2276-4 1.2123-4 1.1973-4
 H, KJ/KG         2120.30  1106.47  1178.78  1251.12  1323.47  1395.84  1468.23  1540.64
 U, KJ/KG          284.90  -440.21  -388.52  -336.81  -285.08  -233.33  -181.57  -129.78
 G, KJ/KG        -40898.9 -34053.2 -34522.5 -34992.7 -35463.9 -35936.0 -36409.0 -36882.9
 S, KJ/(KG)(K)    96.6724  93.7592  93.9507  94.1398  94.3265  94.5109  94.6930  94.8729

 M, (1/n)           2.016    2.016    2.016    2.016    2.016    2.016    2.016    2.016
 (dLV/dLP)t      -1.00000 -1.00000 -1.00000 -1.00000 -1.00000 -1.00000 -1.00000 -1.00000
 (dLV/dLT)p        1.0000   1.0000   1.0000   1.0000   1.0000   1.0000   1.0000   1.0000
 Cp, KJ/(KG)(K)   14.4988  14.4597  14.4644  14.4687  14.4726  14.4762  14.4795  14.4825
 GAMMAs            1.3976   1.3991   1.3989   1.3987   1.3986   1.3984   1.3983   1.3982
 SON VEL,M/SEC     1601.6   1471.0   1480.7   1490.3   1499.9   1509.4   1518.9   1528.3

 TRANSPORT PROPERTIES (GASES ONLY)
   CONDUCTIVITY IN UNITS OF MILLIWATTS/(CM)(K)

 VISC,MILLIPOISE  0.11713  0.00010  0.00062  0.00358  0.01791  0.05705  0.09351  0.10653

  WITH EQUILIBRIUM REACTIONS

 Cp, KJ/(KG)(K)   14.4988  14.4597  14.4644  14.4687  14.4726  14.4762  14.4795  14.4825
 CONDUCTIVITY      2.4692   0.0006   0.0038   0.0227   0.1256   0.5629   1.4698   2.0926
 PRANDTL NUMBER    0.6878   2.3367   2.3292   2.2835   2.0634   1.4671   0.9212   0.7373

  WITH FROZEN REACTIONS

 Cp, KJ/(KG)(K)   14.4988  14.4597  14.4644  14.4687  14.4726  14.4762  14.4795  14.4825
 CONDUCTIVITY      2.4692   0.0006   0.0038   0.0227   0.1256   0.5629   1.4698   2.0926
 PRANDTL NUMBER    0.6878   2.3367   2.3292   2.2835   2.0634   1.4671   0.9212   0.7373

 MASS FRACTIONS

 *H2              1.00000  1.00000  1.00000  1.00000  1.00000  1.00000  1.00000  1.00000

  * THERMODYNAMIC PROPERTIES FITTED TO 20000.K

 NOTE. WEIGHT FRACTION OF FUEL IN TOTAL FUELS AND OF OXIDANT IN TOTAL OXIDANTS









               THERMODYNAMIC EQUILIBRIUM PROPERTIES AT ASSIGNED

                           TEMPERATURE AND PRESSURE

 CASE =                

             REACTANT                    WT FRACTION      ENERGY      TEMP
                                          (SEE NOTE)     KJ/KG-MOL      K  
 FUEL        H2                           1.0000000         0.000      0.000
 OXIDANT     H2                           1.0000000         0.000      0.000

 O/F=    1.00000  %FUEL= 50.000000  R,EQ.RATIO= 0.000000  PHI,EQ.RATIO=-1.000000

 THERMODYNAMIC PROPERTIES

 P, BAR           0.00200  0.00200  0.00200  0.00200  0.00200  0.00200  0.00200  0.00200
 T, K              410.00   415.00   420.00   425.00   430.00   435.00   440.00   445.00
 RHO, KG/CU M    1.1827-4 1.1685-4 1.1545-4 1.1410-4 1.1277-4 1.1147-4 1.1021-4 1.0897-4
 H, KJ/KG         1613.06  1685.49  1757.93  1830.39  1902.85  1975.33  2047.81  2120.30
 U, KJ/KG         -77.986  -26.176   25.646   77.479   129.32   181.17   233.03   284.90
 G, KJ/KG        -37357.7 -37833.4 -38310.0 -38787.4 -39265.7 -39744.8 -40224.8 -40705.5
 S, KJ/(KG)(K)    95.0506  95.2262  95.3998  95.5712  95.7408  95.9083  96.0740  96.2378

 M, (1/n)           2.016    2.016    2.016    2.016    2.016    2.016    2.016    2.016
 (dLV/dLP)t      -1.00000 -1.00000 -1.00000 -1.00000 -1.00000 -1.00000 -1.00000 -1.00000
 (dLV/dLT)p        1.0000   1.0000   1.0000   1.0000   1.0000   1.0000   1.0000   1.0000
 Cp, KJ/(KG)(K)   14.4852  14.4877  14.4900  14.4920  14.4939  14.4957  14.4973  14.4988
 GAMMAs            1.3981   1.3980   1.3979   1.3978   1.3978   1.3977   1.3976   1.3976
 SON VEL,M/SEC     1537.6   1546.9   1556.1   1565.3   1574.5   1583.6   1592.6   1601.6

 TRANSPORT PROPERTIES (GASES ONLY)
   CONDUCTIVITY IN UNITS OF MILLIWATTS/(CM)(K)

 VISC,MILLIPOISE  0.11012  0.11157  0.11259  0.11352  0.11443  0.11533  0.11623  0.11713

  WITH EQUILIBRIUM REACTIONS

 Cp, KJ/(KG)(K)   14.4852  14.4877  14.4900  14.4920  14.4939  14.4957  14.4973  14.4988
 CONDUCTIVITY      2.2880   2.3452   2.3722   2.3929   2.4123   2.4314   2.4503   2.4692
 PRANDTL NUMBER    0.6972   0.6892   0.6877   0.6875   0.6875   0.6876   0.6877   0.6878

  WITH FROZEN REACTIONS

 Cp, KJ/(KG)(K)   14.4852  14.4877  14.4900  14.4920  14.4939  14.4957  14.4973  14.4988
 CONDUCTIVITY      2.2880   2.3452   2.3722   2.3929   2.4123   2.4314   2.4503   2.4692
 PRANDTL NUMBER    0.6972   0.6892   0.6877   0.6875   0.6875   0.6876   0.6877   0.6878

 MASS FRACTIONS

 *H2              1.00000  1.00000  1.00000  1.00000  1.00000  1.00000  1.00000  1.00000

  * THERMODYNAMIC PROPERTIES FITTED TO 20000.K

 NOTE. WEIGHT FRACTION OF FUEL IN TOTAL FUELS AND OF OXIDANT IN TOTAL OXIDANTS









               THERMODYNAMIC EQUILIBRIUM PROPERTIES AT ASSIGNED

                           TEMPERATURE AND PRESSURE

 CASE =                

             REACTANT                    WT FRACTION      ENERGY      TEMP
                                          (SEE NOTE)     KJ/KG-MOL      K  
 FUEL        H2                           1.0000000         0.000      0.000
 OXIDANT     H2                           1.0000000         0.000      0.000

 O/F=    1.00000  %FUEL= 50.000000  R,EQ.RATIO= 0.000000  PHI,EQ.RATIO=-1.000000

 THERMODYNAMIC PROPERTIES

 P, BAR           0.00225  0.00225  0.00225  0.00225  0.00225  0.00225  0.00225  0.00225
 T, K              375.00   380.00   385.00   390.00   395.00   400.00   405.00   410.00
 RHO, KG/CU M    1.4547-4 1.4356-4 1.4169-4 1.3988-4 1.3811-4 1.3638-4 1.3470-4 1.3305-4
 H, KJ/KG         1106.47  1178.78  1251.12  1323.47  1395.84  1468.23  1540.64  1613.06
 U, KJ/KG         -440.21  -388.52  -336.81  -285.08  -233.33  -181.57  -129.78  -77.986
 G, KJ/KG        -33871.1 -34337.9 -34805.7 -35274.4 -35744.1 -36214.7 -36686.1 -37158.5
 S, KJ/(KG)(K)    93.2734  93.4649  93.6540  93.8407  94.0251  94.2072  94.3871  94.5648

 M, (1/n)           2.016    2.016    2.016    2.016    2.016    2.016    2.016    2.016
 (dLV/dLP)t      -1.00000 -1.00000 -1.00000 -1.00000 -1.00000 -1.00000 -1.00000 -1.00000
 (dLV/dLT)p        1.0000   1.0000   1.0000   1.0000   1.0000   1.0000   1.0000   1.0000
 Cp, KJ/(KG)(K)   14.4597  14.4644  14.4687  14.4726  14.4762  14.4795  14.4825  14.4852
 GAMMAs            1.3991   1.3989   1.3987   1.3986   1.3984   1.3983   1.3982   1.3981
 SON VEL,M/SEC     1471.0   1480.7   1490.3   1499.9   1509.4   1518.9   1528.3   1537.6

 TRANSPORT PROPERTIES (GASES ONLY)
   CONDUCTIVITY IN UNITS OF MILLIWATTS/(CM)(K)

 VISC,MILLIPOISE  0.00010  0.00062  0.00358  0.01791  0.05705  0.09351  0.10653  0.11012

  WITH EQUILIBRIUM REACTIONS

 Cp, KJ/(KG)(K)   14.4597  14.4644  14.4687  14.4726  14.4762  14.4795  14.4825  14.4852
 CONDUCTIVITY      0.0006   0.0038   0.0227   0.1256   0.5629   1.4698   2.0926   2.2880
 PRANDTL NUMBER    2.3367   2.3292   2.2835   2.0634   1.4671   0.9212   0.7373   0.6972

  WITH FROZEN REACTIONS

 Cp, KJ/(KG)(K)   14.4597  14.4644  14.4687  14.4726  14.4762  14.4795  14.4825  14.4852
 CONDUCTIVITY      0.0006   0.0038   0.0227   0.1256   0.5629   1.4698   2.0926   2.2880
 PRANDTL NUMBER    2.3367   2.3292   2.2835   2.0634   1.4671   0.9212   0.7373   0.6972

 MASS FRACTIONS

 *H2              1.00000  1.00000  1.00000  1.00000  1.00000  1.00000  1.00000  1.00000

  * THERMODYNAMIC PROPERTIES FITTED TO 20000.K

 NOTE. WEIGHT FRACTION OF FUEL IN TOTAL FUELS AND OF OXIDANT IN TOTAL OXIDANTS









               THERMODYNAMIC EQUILIBRIUM PROPERTIES AT ASSIGNED

                           TEMPERATURE AND PRESSURE

 CASE =                

             REACTANT                    WT FRACTION      ENERGY      TEMP
                                          (SEE NOTE)     KJ/KG-MOL      K  
 FUEL        H2                           1.0000000         0.000      0.000
 OXIDANT     H2                           1.0000000         0.000      0.000

 O/F=    1.00000  %FUEL= 50.000000  R,EQ.RATIO= 0.000000  PHI,EQ.RATIO=-1.000000

 THERMODYNAMIC PROPERTIES

 P, BAR           0.00225  0.00225  0.00225  0.00225  0.00225  0.00225  0.00225  0.00250
 T, K              415.00   420.00   425.00   430.00   435.00   440.00   445.00   375.00
 RHO, KG/CU M    1.3145-4 1.2989-4 1.2836-4 1.2687-4 1.2541-4 1.2398-4 1.2259-4 1.6164-4
 H, KJ/KG         1685.49  1757.93  1830.39  1902.85  1975.33  2047.81  2120.30  1106.47
 U, KJ/KG         -26.176   25.646   77.479   129.32   181.17   233.03   284.90  -440.21
 G, KJ/KG        -37631.8 -38105.9 -38580.9 -39056.8 -39533.5 -40011.0 -40489.4 -33708.1
 S, KJ/(KG)(K)    94.7404  94.9140  95.0855  95.2550  95.4225  95.5882  95.7520  92.8389

 M, (1/n)           2.016    2.016    2.016    2.016    2.016    2.016    2.016    2.016
 (dLV/dLP)t      -1.00000 -1.00000 -1.00000 -1.00000 -1.00000 -1.00000 -1.00000 -1.00000
 (dLV/dLT)p        1.0000   1.0000   1.0000   1.0000   1.0000   1.0000   1.0000   1.0000
 Cp, KJ/(KG)(K)   14.4877  14.4900  14.4920  14.4939  14.4957  14.4973  14.4988  14.4597
 GAMMAs            1.3980   1.3979   1.3978   1.3978   1.3977   1.3976   1.3976   1.3991
 SON VEL,M/SEC     1546.9   1556.1   1565.3   1574.5   1583.6   1592.6   1601.6   1471.0

 TRANSPORT PROPERTIES (GASES ONLY)
   CONDUCTIVITY IN UNITS OF MILLIWATTS/(CM)(K)

 VISC,MILLIPOISE  0.11157  0.11259  0.11352  0.11443  0.11533  0.11623  0.11713  0.00010

  WITH EQUILIBRIUM REACTIONS

 Cp, KJ/(KG)(K)   14.4877  14.4900  14.4920  14.4939  14.4957  14.4973  14.4988  14.4597
 CONDUCTIVITY      2.3452   2.3722   2.3929   2.4123   2.4314   2.4503   2.4692   0.0006
 PRANDTL NUMBER    0.6892   0.6877   0.6875   0.6875   0.6876   0.6877   0.6878   2.3367

  WITH FROZEN REACTIONS

 Cp, KJ/(KG)(K)   14.4877  14.4900  14.4920  14.4939  14.4957  14.4973  14.4988  14.4597
 CONDUCTIVITY      2.3452   2.3722   2.3929   2.4123   2.4314   2.4503   2.4692   0.0006
 PRANDTL NUMBER    0.6892   0.6877   0.6875   0.6875   0.6876   0.6877   0.6878   2.3367

 MASS FRACTIONS

 *H2              1.00000  1.00000  1.00000  1.00000  1.00000  1.00000  1.00000  1.00000

  * THERMODYNAMIC PROPERTIES FITTED TO 20000.K

 NOTE. WEIGHT FRACTION OF FUEL IN TOTAL FUELS AND OF OXIDANT IN TOTAL OXIDANTS









               THERMODYNAMIC EQUILIBRIUM PROPERTIES AT ASSIGNED

                           TEMPERATURE AND PRESSURE

 CASE =                

             REACTANT                    WT FRACTION      ENERGY      TEMP
                                          (SEE NOTE)     KJ/KG-MOL      K  
 FUEL        H2                           1.0000000         0.000      0.000
 OXIDANT     H2                           1.0000000         0.000      0.000

 O/F=    1.00000  %FUEL= 50.000000  R,EQ.RATIO= 0.000000  PHI,EQ.RATIO=-1.000000

 THERMODYNAMIC PROPERTIES

 P, BAR           0.00250  0.00250  0.00250  0.00250  0.00250  0.00250  0.00250  0.00250
 T, K              380.00   385.00   390.00   395.00   400.00   405.00   410.00   415.00
 RHO, KG/CU M    1.5951-4 1.5744-4 1.5542-4 1.5345-4 1.5153-4 1.4966-4 1.4784-4 1.4606-4
 H, KJ/KG         1178.78  1251.12  1323.47  1395.84  1468.23  1540.64  1613.06  1685.49
 U, KJ/KG         -388.52  -336.81  -285.08  -233.33  -181.57  -129.78  -77.986  -26.176
 G, KJ/KG        -34172.8 -34638.4 -35104.9 -35572.4 -36040.8 -36510.2 -36980.4 -37451.5
 S, KJ/(KG)(K)    93.0304  93.2195  93.4062  93.5906  93.7727  93.9526  94.1303  94.3059

 M, (1/n)           2.016    2.016    2.016    2.016    2.016    2.016    2.016    2.016
 (dLV/dLP)t      -1.00000 -1.00000 -1.00000 -1.00000 -1.00000 -1.00000 -1.00000 -1.00000
 (dLV/dLT)p        1.0000   1.0000   1.0000   1.0000   1.0000   1.0000   1.0000   1.0000
 Cp, KJ/(KG)(K)   14.4644  14.4687  14.4726  14.4762  14.4795  14.4825  14.4852  14.4877
 GAMMAs            1.3989   1.3987   1.3986   1.3984   1.3983   1.3982   1.3981   1.3980
 SON VEL,M/SEC     1480.7   1490.3   1499.9   1509.4   1518.9   1528.3   1537.6   1546.9

 TRANSPORT PROPERTIES (GASES ONLY)
   CONDUCTIVITY IN UNITS OF MILLIWATTS/(CM)(K)

 VISC,MILLIPOISE  0.00062  0.00358  0.01791  0.05705  0.09351  0.10653  0.11012  0.11157

  WITH EQUILIBRIUM REACTIONS

 Cp, KJ/(KG)(K)   14.4644  14.4687  14.4726  14.4762  14.4795  14.4825  14.4852  14.4877
 CONDUCTIVITY      0.0038   0.0227   0.1256   0.5629   1.4698   2.0926   2.2880   2.3452
 PRANDTL NUMBER    2.3292   2.2835   2.0634   1.4671   0.9212   0.7373   0.6972   0.6892

  WITH FROZEN REACTIONS

 Cp, KJ/(KG)(K)   14.4644  14.4687  14.4726  14.4762  14.4795  14.4825  14.4852  14.4877
 CONDUCTIVITY      0.0038   0.0227   0.1256   0.5629   1.4698   2.0926   2.2880   2.3452
 PRANDTL NUMBER    2.3292   2.2835   2.0634   1.4671   0.9212   0.7373   0.6972   0.6892

 MASS FRACTIONS

 *H2              1.00000  1.00000  1.00000  1.00000  1.00000  1.00000  1.00000  1.00000

  * THERMODYNAMIC PROPERTIES FITTED TO 20000.K

 NOTE. WEIGHT FRACTION OF FUEL IN TOTAL FUELS AND OF OXIDANT IN TOTAL OXIDANTS









               THERMODYNAMIC EQUILIBRIUM PROPERTIES AT ASSIGNED

                           TEMPERATURE AND PRESSURE

 CASE =                

             REACTANT                    WT FRACTION      ENERGY      TEMP
                                          (SEE NOTE)     KJ/KG-MOL      K  
 FUEL        H2                           1.0000000         0.000      0.000
 OXIDANT     H2                           1.0000000         0.000      0.000

 O/F=    1.00000  %FUEL= 50.000000  R,EQ.RATIO= 0.000000  PHI,EQ.RATIO=-1.000000

 THERMODYNAMIC PROPERTIES

 P, BAR           0.00250  0.00250  0.00250  0.00250  0.00250  0.00250  0.00280  0.00280
 T, K              420.00   425.00   430.00   435.00   440.00   445.00   375.00   380.00
 RHO, KG/CU M    1.4432-4 1.4262-4 1.4096-4 1.3934-4 1.3776-4 1.3621-4 1.8103-4 1.7865-4
 H, KJ/KG         1757.93  1830.39  1902.85  1975.33  2047.81  2120.30  1106.47  1178.78
 U, KJ/KG          25.646   77.479   129.32   181.17   233.03   284.90  -440.21  -388.52
 G, KJ/KG        -37923.4 -38396.2 -38869.9 -39344.4 -39819.8 -40296.0 -33532.8 -33995.1
 S, KJ/(KG)(K)    94.4794  94.6509  94.8204  94.9880  95.1537  95.3175  92.3714  92.5629

 M, (1/n)           2.016    2.016    2.016    2.016    2.016    2.016    2.016    2.016
 (dLV/dLP)t      -1.00000 -1.00000 -1.00000 -1.00000 -1.00000 -1.00000 -1.00000 -1.00000
 (dLV/dLT)p        1.0000   1.0000   1.0000   1.0000   1.0000   1.0000   1.0000   1.0000
 Cp, KJ/(KG)(K)   14.4900  14.4920  14.4939  14.4957  14.4973  14.4988  14.4597  14.4644
 GAMMAs            1.3979   1.3978   1.3978   1.3977   1.3976   1.3976   1.3991   1.3989
 SON VEL,M/SEC     1556.1   1565.3   1574.5   1583.6   1592.6   1601.6   1471.0   1480.7

 TRANSPORT PROPERTIES (GASES ONLY)
   CONDUCTIVITY IN UNITS OF MILLIWATTS/(CM)(K)

 VISC,MILLIPOISE  0.11259  0.11352  0.11443  0.11533  0.11623  0.11713  0.00010  0.00062

  WITH EQUILIBRIUM REACTIONS

 Cp, KJ/(KG)(K)   14.4900  14.4920  14.4939  14.4957  14.4973  14.4988  14.4597  14.4644
 CONDUCTIVITY      2.3722   2.3929   2.4123   2.4314   2.4503   2.4692   0.0006   0.0038
 PRANDTL NUMBER    0.6877   0.6875   0.6875   0.6876   0.6877   0.6878   2.3367   2.3292

  WITH FROZEN REACTIONS

 Cp, KJ/(KG)(K)   14.4900  14.4920  14.4939  14.4957  14.4973  14.4988  14.4597  14.4644
 CONDUCTIVITY      2.3722   2.3929   2.4123   2.4314   2.4503   2.4692   0.0006   0.0038
 PRANDTL NUMBER    0.6877   0.6875   0.6875   0.6876   0.6877   0.6878   2.3367   2.3292

 MASS FRACTIONS

 *H2              1.00000  1.00000  1.00000  1.00000  1.00000  1.00000  1.00000  1.00000

  * THERMODYNAMIC PROPERTIES FITTED TO 20000.K

 NOTE. WEIGHT FRACTION OF FUEL IN TOTAL FUELS AND OF OXIDANT IN TOTAL OXIDANTS









               THERMODYNAMIC EQUILIBRIUM PROPERTIES AT ASSIGNED

                           TEMPERATURE AND PRESSURE

 CASE =                

             REACTANT                    WT FRACTION      ENERGY      TEMP
                                          (SEE NOTE)     KJ/KG-MOL      K  
 FUEL        H2                           1.0000000         0.000      0.000
 OXIDANT     H2                           1.0000000         0.000      0.000

 O/F=    1.00000  %FUEL= 50.000000  R,EQ.RATIO= 0.000000  PHI,EQ.RATIO=-1.000000

 THERMODYNAMIC PROPERTIES

 P, BAR           0.00280  0.00280  0.00280  0.00280  0.00280  0.00280  0.00280  0.00280
 T, K              385.00   390.00   395.00   400.00   405.00   410.00   415.00   420.00
 RHO, KG/CU M    1.7633-4 1.7407-4 1.7187-4 1.6972-4 1.6762-4 1.6558-4 1.6358-4 1.6164-4
 H, KJ/KG         1251.12  1323.47  1395.84  1468.23  1540.64  1613.06  1685.49  1757.93
 U, KJ/KG         -336.81  -285.08  -233.33  -181.57  -129.78  -77.986  -26.176   25.646
 G, KJ/KG        -34458.4 -34922.6 -35387.8 -35853.9 -36320.8 -36788.7 -37257.5 -37727.1
 S, KJ/(KG)(K)    92.7520  92.9387  93.1231  93.3052  93.4851  93.6629  93.8385  94.0120

 M, (1/n)           2.016    2.016    2.016    2.016    2.016    2.016    2.016    2.016
 (dLV/dLP)t      -1.00000 -1.00000 -1.00000 -1.00000 -1.00000 -1.00000 -1.00000 -1.00000
 (dLV/dLT)p        1.0000   1.0000   1.0000   1.0000   1.0000   1.0000   1.0000   1.0000
 Cp, KJ/(KG)(K)   14.4687  14.4726  14.4762  14.4795  14.4825  14.4852  14.4877  14.4900
 GAMMAs            1.3987   1.3986   1.3984   1.3983   1.3982   1.3981   1.3980   1.3979
 SON VEL,M/SEC     1490.3   1499.9   1509.4   1518.9   1528.3   1537.6   1546.9   1556.1

 TRANSPORT PROPERTIES (GASES ONLY)
   CONDUCTIVITY IN UNITS OF MILLIWATTS/(CM)(K)

 VISC,MILLIPOISE  0.00358  0.01791  0.05705  0.09351  0.10653  0.11012  0.11157  0.11259

  WITH EQUILIBRIUM REACTIONS

 Cp, KJ/(KG)(K)   14.4687  14.4726  14.4762  14.4795  14.4825  14.4852  14.4877  14.4900
 CONDUCTIVITY      0.0227   0.1256   0.5629   1.4698   2.0926   2.2880   2.3452   2.3722
 PRANDTL NUMBER    2.2835   2.0634   1.4671   0.9212   0.7373   0.6972   0.6892   0.6877

  WITH FROZEN REACTIONS

 Cp, KJ/(KG)(K)   14.4687  14.4726  14.4762  14.4795  14.4825  14.4852  14.4877  14.4900
 CONDUCTIVITY      0.0227   0.1256   0.5629   1.4698   2.0926   2.2880   2.3452   2.3722
 PRANDTL NUMBER    2.2835   2.0634   1.4671   0.9212   0.7373   0.6972   0.6892   0.6877

 MASS FRACTIONS

 *H2              1.00000  1.00000  1.00000  1.00000  1.00000  1.00000  1.00000  1.00000

  * THERMODYNAMIC PROPERTIES FITTED TO 20000.K

 NOTE. WEIGHT FRACTION OF FUEL IN TOTAL FUELS AND OF OXIDANT IN TOTAL OXIDANTS









               THERMODYNAMIC EQUILIBRIUM PROPERTIES AT ASSIGNED

                           TEMPERATURE AND PRESSURE

 CASE =                

             REACTANT                    WT FRACTION      ENERGY      TEMP
                                          (SEE NOTE)     KJ/KG-MOL      K  
 FUEL        H2                           1.0000000         0.000      0.000
 OXIDANT     H2                           1.0000000         0.000      0.000

 O/F=    1.00000  %FUEL= 50.000000  R,EQ.RATIO= 0.000000  PHI,EQ.RATIO=-1.000000

 THERMODYNAMIC PROPERTIES

 P, BAR           0.00280  0.00280  0.00280  0.00280  0.00280  0.00310  0.00310  0.00310
 T, K              425.00   430.00   435.00   440.00   445.00   375.00   380.00   385.00
 RHO, KG/CU M    1.5973-4 1.5788-4 1.5606-4 1.5429-4 1.5256-4 2.0043-4 1.9779-4 1.9522-4
 H, KJ/KG         1830.39  1902.85  1975.33  2047.81  2120.30  1106.47  1178.78  1251.12
 U, KJ/KG          77.479   129.32   181.17   233.03   284.90  -440.21  -388.52  -336.81
 G, KJ/KG        -38197.6 -38668.9 -39141.1 -39614.1 -40088.0 -33375.4 -33835.6 -34296.8
 S, KJ/(KG)(K)    94.1835  94.3530  94.5205  94.6862  94.8500  91.9516  92.1431  92.3322

 M, (1/n)           2.016    2.016    2.016    2.016    2.016    2.016    2.016    2.016
 (dLV/dLP)t      -1.00000 -1.00000 -1.00000 -1.00000 -1.00000 -1.00000 -1.00000 -1.00000
 (dLV/dLT)p        1.0000   1.0000   1.0000   1.0000   1.0000   1.0000   1.0000   1.0000
 Cp, KJ/(KG)(K)   14.4920  14.4939  14.4957  14.4973  14.4988  14.4597  14.4644  14.4687
 GAMMAs            1.3978   1.3978   1.3977   1.3976   1.3976   1.3991   1.3989   1.3987
 SON VEL,M/SEC     1565.3   1574.5   1583.6   1592.6   1601.6   1471.0   1480.7   1490.3

 TRANSPORT PROPERTIES (GASES ONLY)
   CONDUCTIVITY IN UNITS OF MILLIWATTS/(CM)(K)

 VISC,MILLIPOISE  0.11352  0.11443  0.11533  0.11623  0.11713  0.00010  0.00062  0.00358

  WITH EQUILIBRIUM REACTIONS

 Cp, KJ/(KG)(K)   14.4920  14.4939  14.4957  14.4973  14.4988  14.4597  14.4644  14.4687
 CONDUCTIVITY      2.3929   2.4123   2.4314   2.4503   2.4692   0.0006   0.0038   0.0227
 PRANDTL NUMBER    0.6875   0.6875   0.6876   0.6877   0.6878   2.3367   2.3292   2.2835

  WITH FROZEN REACTIONS

 Cp, KJ/(KG)(K)   14.4920  14.4939  14.4957  14.4973  14.4988  14.4597  14.4644  14.4687
 CONDUCTIVITY      2.3929   2.4123   2.4314   2.4503   2.4692   0.0006   0.0038   0.0227
 PRANDTL NUMBER    0.6875   0.6875   0.6876   0.6877   0.6878   2.3367   2.3292   2.2835

 MASS FRACTIONS

 *H2              1.00000  1.00000  1.00000  1.00000  1.00000  1.00000  1.00000  1.00000

  * THERMODYNAMIC PROPERTIES FITTED TO 20000.K

 NOTE. WEIGHT FRACTION OF FUEL IN TOTAL FUELS AND OF OXIDANT IN TOTAL OXIDANTS









               THERMODYNAMIC EQUILIBRIUM PROPERTIES AT ASSIGNED

                           TEMPERATURE AND PRESSURE

 CASE =                

             REACTANT                    WT FRACTION      ENERGY      TEMP
                                          (SEE NOTE)     KJ/KG-MOL      K  
 FUEL        H2                           1.0000000         0.000      0.000
 OXIDANT     H2                           1.0000000         0.000      0.000

 O/F=    1.00000  %FUEL= 50.000000  R,EQ.RATIO= 0.000000  PHI,EQ.RATIO=-1.000000

 THERMODYNAMIC PROPERTIES

 P, BAR           0.00310  0.00310  0.00310  0.00310  0.00310  0.00310  0.00310  0.00310
 T, K              390.00   395.00   400.00   405.00   410.00   415.00   420.00   425.00
 RHO, KG/CU M    1.9272-4 1.9028-4 1.8790-4 1.8558-4 1.8332-4 1.8111-4 1.7895-4 1.7685-4
 H, KJ/KG         1323.47  1395.84  1468.23  1540.64  1613.06  1685.49  1757.93  1830.39
 U, KJ/KG         -285.08  -233.33  -181.57  -129.78  -77.986  -26.176   25.646   77.479
 G, KJ/KG        -34758.9 -35222.0 -35685.9 -36150.8 -36616.6 -37083.3 -37550.8 -38019.2
 S, KJ/(KG)(K)    92.5189  92.7033  92.8854  93.0653  93.2431  93.4186  93.5922  93.7637

 M, (1/n)           2.016    2.016    2.016    2.016    2.016    2.016    2.016    2.016
 (dLV/dLP)t      -1.00000 -1.00000 -1.00000 -1.00000 -1.00000 -1.00000 -1.00000 -1.00000
 (dLV/dLT)p        1.0000   1.0000   1.0000   1.0000   1.0000   1.0000   1.0000   1.0000
 Cp, KJ/(KG)(K)   14.4726  14.4762  14.4795  14.4825  14.4852  14.4877  14.4900  14.4920
 GAMMAs            1.3986   1.3984   1.3983   1.3982   1.3981   1.3980   1.3979   1.3978
 SON VEL,M/SEC     1499.9   1509.4   1518.9   1528.3   1537.6   1546.9   1556.1   1565.3

 TRANSPORT PROPERTIES (GASES ONLY)
   CONDUCTIVITY IN UNITS OF MILLIWATTS/(CM)(K)

 VISC,MILLIPOISE  0.01791  0.05705  0.09351  0.10653  0.11012  0.11157  0.11259  0.11352

  WITH EQUILIBRIUM REACTIONS

 Cp, KJ/(KG)(K)   14.4726  14.4762  14.4795  14.4825  14.4852  14.4877  14.4900  14.4920
 CONDUCTIVITY      0.1256   0.5629   1.4698   2.0926   2.2880   2.3452   2.3722   2.3929
 PRANDTL NUMBER    2.0634   1.4671   0.9212   0.7373   0.6972   0.6892   0.6877   0.6875

  WITH FROZEN REACTIONS

 Cp, KJ/(KG)(K)   14.4726  14.4762  14.4795  14.4825  14.4852  14.4877  14.4900  14.4920
 CONDUCTIVITY      0.1256   0.5629   1.4698   2.0926   2.2880   2.3452   2.3722   2.3929
 PRANDTL NUMBER    2.0634   1.4671   0.9212   0.7373   0.6972   0.6892   0.6877   0.6875

 MASS FRACTIONS

 *H2              1.00000  1.00000  1.00000  1.00000  1.00000  1.00000  1.00000  1.00000

  * THERMODYNAMIC PROPERTIES FITTED TO 20000.K

 NOTE. WEIGHT FRACTION OF FUEL IN TOTAL FUELS AND OF OXIDANT IN TOTAL OXIDANTS









               THERMODYNAMIC EQUILIBRIUM PROPERTIES AT ASSIGNED

                           TEMPERATURE AND PRESSURE

 CASE =                

             REACTANT                    WT FRACTION      ENERGY      TEMP
                                          (SEE NOTE)     KJ/KG-MOL      K  
 FUEL        H2                           1.0000000         0.000      0.000
 OXIDANT     H2                           1.0000000         0.000      0.000

 O/F=    1.00000  %FUEL= 50.000000  R,EQ.RATIO= 0.000000  PHI,EQ.RATIO=-1.000000

 THERMODYNAMIC PROPERTIES

 P, BAR           0.00310  0.00310  0.00310  0.00310  0.00350  0.00350  0.00350  0.00350
 T, K              430.00   435.00   440.00   445.00   375.00   380.00   385.00   390.00
 RHO, KG/CU M    1.7479-4 1.7278-4 1.7082-4 1.6890-4 2.2629-4 2.2331-4 2.2041-4 2.1759-4
 H, KJ/KG         1902.85  1975.33  2047.81  2120.30  1106.47  1178.78  1251.12  1323.47
 U, KJ/KG          129.32   181.17   233.03   284.90  -440.21  -388.52  -336.81  -285.08
 G, KJ/KG        -38488.4 -38958.5 -39429.4 -39901.2 -33187.7 -33645.4 -34104.1 -34563.7
 S, KJ/(KG)(K)    93.9332  94.1007  94.2664  94.4302  91.4511  91.6426  91.8317  92.0184

 M, (1/n)           2.016    2.016    2.016    2.016    2.016    2.016    2.016    2.016
 (dLV/dLP)t      -1.00000 -1.00000 -1.00000 -1.00000 -1.00000 -1.00000 -1.00000 -1.00000
 (dLV/dLT)p        1.0000   1.0000   1.0000   1.0000   1.0000   1.0000   1.0000   1.0000
 Cp, KJ/(KG)(K)   14.4939  14.4957  14.4973  14.4988  14.4597  14.4644  14.4687  14.4726
 GAMMAs            1.3978   1.3977   1.3976   1.3976   1.3991   1.3989   1.3987   1.3986
 SON VEL,M/SEC     1574.5   1583.6   1592.6   1601.6   1471.0   1480.7   1490.3   1499.9

 TRANSPORT PROPERTIES (GASES ONLY)
   CONDUCTIVITY IN UNITS OF MILLIWATTS/(CM)(K)

 VISC,MILLIPOISE  0.11443  0.11533  0.11623  0.11713  0.00010  0.00062  0.00358  0.01791

  WITH EQUILIBRIUM REACTIONS

 Cp, KJ/(KG)(K)   14.4939  14.4957  14.4973  14.4988  14.4597  14.4644  14.4687  14.4726
 CONDUCTIVITY      2.4123   2.4314   2.4503   2.4692   0.0006   0.0038   0.0227   0.1256
 PRANDTL NUMBER    0.6875   0.6876   0.6877   0.6878   2.3367   2.3292   2.2835   2.0634

  WITH FROZEN REACTIONS

 Cp, KJ/(KG)(K)   14.4939  14.4957  14.4973  14.4988  14.4597  14.4644  14.4687  14.4726
 CONDUCTIVITY      2.4123   2.4314   2.4503   2.4692   0.0006   0.0038   0.0227   0.1256
 PRANDTL NUMBER    0.6875   0.6876   0.6877   0.6878   2.3367   2.3292   2.2835   2.0634

 MASS FRACTIONS

 *H2              1.00000  1.00000  1.00000  1.00000  1.00000  1.00000  1.00000  1.00000

  * THERMODYNAMIC PROPERTIES FITTED TO 20000.K

 NOTE. WEIGHT FRACTION OF FUEL IN TOTAL FUELS AND OF OXIDANT IN TOTAL OXIDANTS









               THERMODYNAMIC EQUILIBRIUM PROPERTIES AT ASSIGNED

                           TEMPERATURE AND PRESSURE

 CASE =                

             REACTANT                    WT FRACTION      ENERGY      TEMP
                                          (SEE NOTE)     KJ/KG-MOL      K  
 FUEL        H2                           1.0000000         0.000      0.000
 OXIDANT     H2                           1.0000000         0.000      0.000

 O/F=    1.00000  %FUEL= 50.000000  R,EQ.RATIO= 0.000000  PHI,EQ.RATIO=-1.000000

 THERMODYNAMIC PROPERTIES

 P, BAR           0.00350  0.00350  0.00350  0.00350  0.00350  0.00350  0.00350  0.00350
 T, K              395.00   400.00   405.00   410.00   415.00   420.00   425.00   430.00
 RHO, KG/CU M    2.1483-4 2.1215-4 2.0953-4 2.0697-4 2.0448-4 2.0205-4 1.9967-4 1.9735-4
 H, KJ/KG         1395.84  1468.23  1540.64  1613.06  1685.49  1757.93  1830.39  1902.85
 U, KJ/KG         -233.33  -181.57  -129.78  -77.986  -26.176   25.646   77.479   129.32
 G, KJ/KG        -35024.3 -35485.7 -35948.1 -36411.4 -36875.5 -37340.5 -37806.4 -38273.2
 S, KJ/(KG)(K)    92.2028  92.3849  92.5648  92.7425  92.9181  93.0916  93.2631  93.4326

 M, (1/n)           2.016    2.016    2.016    2.016    2.016    2.016    2.016    2.016
 (dLV/dLP)t      -1.00000 -1.00000 -1.00000 -1.00000 -1.00000 -1.00000 -1.00000 -1.00000
 (dLV/dLT)p        1.0000   1.0000   1.0000   1.0000   1.0000   1.0000   1.0000   1.0000
 Cp, KJ/(KG)(K)   14.4762  14.4795  14.4825  14.4852  14.4877  14.4900  14.4920  14.4939
 GAMMAs            1.3984   1.3983   1.3982   1.3981   1.3980   1.3979   1.3978   1.3978
 SON VEL,M/SEC     1509.4   1518.9   1528.3   1537.6   1546.9   1556.1   1565.3   1574.5

 TRANSPORT PROPERTIES (GASES ONLY)
   CONDUCTIVITY IN UNITS OF MILLIWATTS/(CM)(K)

 VISC,MILLIPOISE  0.05705  0.09351  0.10653  0.11012  0.11157  0.11259  0.11352  0.11443

  WITH EQUILIBRIUM REACTIONS

 Cp, KJ/(KG)(K)   14.4762  14.4795  14.4825  14.4852  14.4877  14.4900  14.4920  14.4939
 CONDUCTIVITY      0.5629   1.4698   2.0926   2.2880   2.3452   2.3722   2.3929   2.4123
 PRANDTL NUMBER    1.4671   0.9212   0.7373   0.6972   0.6892   0.6877   0.6875   0.6875

  WITH FROZEN REACTIONS

 Cp, KJ/(KG)(K)   14.4762  14.4795  14.4825  14.4852  14.4877  14.4900  14.4920  14.4939
 CONDUCTIVITY      0.5629   1.4698   2.0926   2.2880   2.3452   2.3722   2.3929   2.4123
 PRANDTL NUMBER    1.4671   0.9212   0.7373   0.6972   0.6892   0.6877   0.6875   0.6875

 MASS FRACTIONS

 *H2              1.00000  1.00000  1.00000  1.00000  1.00000  1.00000  1.00000  1.00000

  * THERMODYNAMIC PROPERTIES FITTED TO 20000.K

 NOTE. WEIGHT FRACTION OF FUEL IN TOTAL FUELS AND OF OXIDANT IN TOTAL OXIDANTS









               THERMODYNAMIC EQUILIBRIUM PROPERTIES AT ASSIGNED

                           TEMPERATURE AND PRESSURE

 CASE =                

             REACTANT                    WT FRACTION      ENERGY      TEMP
                                          (SEE NOTE)     KJ/KG-MOL      K  
 FUEL        H2                           1.0000000         0.000      0.000
 OXIDANT     H2                           1.0000000         0.000      0.000

 O/F=    1.00000  %FUEL= 50.000000  R,EQ.RATIO= 0.000000  PHI,EQ.RATIO=-1.000000

 THERMODYNAMIC PROPERTIES

 P, BAR           0.00350  0.00350  0.00350  0.00390  0.00390  0.00390  0.00390  0.00390
 T, K              435.00   440.00   445.00   375.00   380.00   385.00   390.00   395.00
 RHO, KG/CU M    1.9508-4 1.9286-4 1.9069-4 2.5215-4 2.4883-4 2.4560-4 2.4245-4 2.3938-4
 H, KJ/KG         1975.33  2047.81  2120.30  1106.47  1178.78  1251.12  1323.47  1395.84
 U, KJ/KG          181.17   233.03   284.90  -440.21  -388.52  -336.81  -285.08  -233.33
 G, KJ/KG        -38740.8 -39209.2 -39678.4 -33020.3 -33475.8 -33932.2 -34389.6 -34848.0
 S, KJ/(KG)(K)    93.6002  93.7659  93.9297  91.0048  91.1963  91.3853  91.5721  91.7564

 M, (1/n)           2.016    2.016    2.016    2.016    2.016    2.016    2.016    2.016
 (dLV/dLP)t      -1.00000 -1.00000 -1.00000 -1.00000 -1.00000 -1.00000 -1.00000 -1.00000
 (dLV/dLT)p        1.0000   1.0000   1.0000   1.0000   1.0000   1.0000   1.0000   1.0000
 Cp, KJ/(KG)(K)   14.4957  14.4973  14.4988  14.4597  14.4644  14.4687  14.4726  14.4762
 GAMMAs            1.3977   1.3976   1.3976   1.3991   1.3989   1.3987   1.3986   1.3984
 SON VEL,M/SEC     1583.6   1592.6   1601.6   1471.0   1480.7   1490.3   1499.9   1509.4

 TRANSPORT PROPERTIES (GASES ONLY)
   CONDUCTIVITY IN UNITS OF MILLIWATTS/(CM)(K)

 VISC,MILLIPOISE  0.11533  0.11623  0.11713  0.00010  0.00062  0.00358  0.01791  0.05705

  WITH EQUILIBRIUM REACTIONS

 Cp, KJ/(KG)(K)   14.4957  14.4973  14.4988  14.4597  14.4644  14.4687  14.4726  14.4762
 CONDUCTIVITY      2.4314   2.4503   2.4692   0.0006   0.0038   0.0227   0.1256   0.5629
 PRANDTL NUMBER    0.6876   0.6877   0.6878   2.3367   2.3292   2.2835   2.0634   1.4671

  WITH FROZEN REACTIONS

 Cp, KJ/(KG)(K)   14.4957  14.4973  14.4988  14.4597  14.4644  14.4687  14.4726  14.4762
 CONDUCTIVITY      2.4314   2.4503   2.4692   0.0006   0.0038   0.0227   0.1256   0.5629
 PRANDTL NUMBER    0.6876   0.6877   0.6878   2.3367   2.3292   2.2835   2.0634   1.4671

 MASS FRACTIONS

 *H2              1.00000  1.00000  1.00000  1.00000  1.00000  1.00000  1.00000  1.00000

  * THERMODYNAMIC PROPERTIES FITTED TO 20000.K

 NOTE. WEIGHT FRACTION OF FUEL IN TOTAL FUELS AND OF OXIDANT IN TOTAL OXIDANTS









               THERMODYNAMIC EQUILIBRIUM PROPERTIES AT ASSIGNED

                           TEMPERATURE AND PRESSURE

 CASE =                

             REACTANT                    WT FRACTION      ENERGY      TEMP
                                          (SEE NOTE)     KJ/KG-MOL      K  
 FUEL        H2                           1.0000000         0.000      0.000
 OXIDANT     H2                           1.0000000         0.000      0.000

 O/F=    1.00000  %FUEL= 50.000000  R,EQ.RATIO= 0.000000  PHI,EQ.RATIO=-1.000000

 THERMODYNAMIC PROPERTIES

 P, BAR           0.00390  0.00390  0.00390  0.00390  0.00390  0.00390  0.00390  0.00390
 T, K              400.00   405.00   410.00   415.00   420.00   425.00   430.00   435.00
 RHO, KG/CU M    2.3639-4 2.3347-4 2.3063-4 2.2785-4 2.2514-4 2.2249-4 2.1990-4 2.1737-4
 H, KJ/KG         1468.23  1540.64  1613.06  1685.49  1757.93  1830.39  1902.85  1975.33
 U, KJ/KG         -181.57  -129.78  -77.986  -26.176   25.646   77.479   129.32   181.17
 G, KJ/KG        -35307.2 -35767.3 -36228.4 -36690.3 -37153.1 -37616.7 -38081.3 -38546.6
 S, KJ/(KG)(K)    91.9386  92.1185  92.2962  92.4718  92.6453  92.8168  92.9863  93.1539

 M, (1/n)           2.016    2.016    2.016    2.016    2.016    2.016    2.016    2.016
 (dLV/dLP)t      -1.00000 -1.00000 -1.00000 -1.00000 -1.00000 -1.00000 -1.00000 -1.00000
 (dLV/dLT)p        1.0000   1.0000   1.0000   1.0000   1.0000   1.0000   1.0000   1.0000
 Cp, KJ/(KG)(K)   14.4795  14.4825  14.4852  14.4877  14.4900  14.4920  14.4939  14.4957
 GAMMAs            1.3983   1.3982   1.3981   1.3980   1.3979   1.3978   1.3978   1.3977
 SON VEL,M/SEC     1518.9   1528.3   1537.6   1546.9   1556.1   1565.3   1574.5   1583.6

 TRANSPORT PROPERTIES (GASES ONLY)
   CONDUCTIVITY IN UNITS OF MILLIWATTS/(CM)(K)

 VISC,MILLIPOISE  0.09351  0.10653  0.11012  0.11157  0.11259  0.11352  0.11443  0.11533

  WITH EQUILIBRIUM REACTIONS

 Cp, KJ/(KG)(K)   14.4795  14.4825  14.4852  14.4877  14.4900  14.4920  14.4939  14.4957
 CONDUCTIVITY      1.4698   2.0926   2.2880   2.3452   2.3722   2.3929   2.4123   2.4314
 PRANDTL NUMBER    0.9212   0.7373   0.6972   0.6892   0.6877   0.6875   0.6875   0.6876

  WITH FROZEN REACTIONS

 Cp, KJ/(KG)(K)   14.4795  14.4825  14.4852  14.4877  14.4900  14.4920  14.4939  14.4957
 CONDUCTIVITY      1.4698   2.0926   2.2880   2.3452   2.3722   2.3929   2.4123   2.4314
 PRANDTL NUMBER    0.9212   0.7373   0.6972   0.6892   0.6877   0.6875   0.6875   0.6876

 MASS FRACTIONS

 *H2              1.00000  1.00000  1.00000  1.00000  1.00000  1.00000  1.00000  1.00000

  * THERMODYNAMIC PROPERTIES FITTED TO 20000.K

 NOTE. WEIGHT FRACTION OF FUEL IN TOTAL FUELS AND OF OXIDANT IN TOTAL OXIDANTS









               THERMODYNAMIC EQUILIBRIUM PROPERTIES AT ASSIGNED

                           TEMPERATURE AND PRESSURE

 CASE =                

             REACTANT                    WT FRACTION      ENERGY      TEMP
                                          (SEE NOTE)     KJ/KG-MOL      K  
 FUEL        H2                           1.0000000         0.000      0.000
 OXIDANT     H2                           1.0000000         0.000      0.000

 O/F=    1.00000  %FUEL= 50.000000  R,EQ.RATIO= 0.000000  PHI,EQ.RATIO=-1.000000

 THERMODYNAMIC PROPERTIES

 P, BAR           0.00390  0.00390  0.00440  0.00440  0.00440  0.00440  0.00440  0.00440
 T, K              440.00   445.00   375.00   380.00   385.00   390.00   395.00   400.00
 RHO, KG/CU M    2.1490-4 2.1249-4 2.8448-4 2.8074-4 2.7709-4 2.7354-4 2.7008-4 2.6670-4
 H, KJ/KG         2047.81  2120.30  1106.47  1178.78  1251.12  1323.47  1395.84  1468.23
 U, KJ/KG          233.03   284.90  -440.21  -388.52  -336.81  -285.08  -233.33  -181.57
 G, KJ/KG        -39012.8 -39479.8 -32833.7 -33286.7 -33740.7 -34195.6 -34651.4 -35108.2
 S, KJ/(KG)(K)    93.3195  93.4834  90.5072  90.6987  90.8878  91.0745  91.2589  91.4410

 M, (1/n)           2.016    2.016    2.016    2.016    2.016    2.016    2.016    2.016
 (dLV/dLP)t      -1.00000 -1.00000 -1.00000 -1.00000 -1.00000 -1.00000 -1.00000 -1.00000
 (dLV/dLT)p        1.0000   1.0000   1.0000   1.0000   1.0000   1.0000   1.0000   1.0000
 Cp, KJ/(KG)(K)   14.4973  14.4988  14.4597  14.4644  14.4687  14.4726  14.4762  14.4795
 GAMMAs            1.3976   1.3976   1.3991   1.3989   1.3987   1.3986   1.3984   1.3983
 SON VEL,M/SEC     1592.6   1601.6   1471.0   1480.7   1490.3   1499.9   1509.4   1518.9

 TRANSPORT PROPERTIES (GASES ONLY)
   CONDUCTIVITY IN UNITS OF MILLIWATTS/(CM)(K)

 VISC,MILLIPOISE  0.11623  0.11713  0.00010  0.00062  0.00358  0.01791  0.05705  0.09351

  WITH EQUILIBRIUM REACTIONS

 Cp, KJ/(KG)(K)   14.4973  14.4988  14.4597  14.4644  14.4687  14.4726  14.4762  14.4795
 CONDUCTIVITY      2.4503   2.4692   0.0006   0.0038   0.0227   0.1256   0.5629   1.4698
 PRANDTL NUMBER    0.6877   0.6878   2.3367   2.3292   2.2835   2.0634   1.4671   0.9212

  WITH FROZEN REACTIONS

 Cp, KJ/(KG)(K)   14.4973  14.4988  14.4597  14.4644  14.4687  14.4726  14.4762  14.4795
 CONDUCTIVITY      2.4503   2.4692   0.0006   0.0038   0.0227   0.1256   0.5629   1.4698
 PRANDTL NUMBER    0.6877   0.6878   2.3367   2.3292   2.2835   2.0634   1.4671   0.9212

 MASS FRACTIONS

 *H2              1.00000  1.00000  1.00000  1.00000  1.00000  1.00000  1.00000  1.00000

  * THERMODYNAMIC PROPERTIES FITTED TO 20000.K

 NOTE. WEIGHT FRACTION OF FUEL IN TOTAL FUELS AND OF OXIDANT IN TOTAL OXIDANTS









               THERMODYNAMIC EQUILIBRIUM PROPERTIES AT ASSIGNED

                           TEMPERATURE AND PRESSURE

 CASE =                

             REACTANT                    WT FRACTION      ENERGY      TEMP
                                          (SEE NOTE)     KJ/KG-MOL      K  
 FUEL        H2                           1.0000000         0.000      0.000
 OXIDANT     H2                           1.0000000         0.000      0.000

 O/F=    1.00000  %FUEL= 50.000000  R,EQ.RATIO= 0.000000  PHI,EQ.RATIO=-1.000000

 THERMODYNAMIC PROPERTIES

 P, BAR           0.00440  0.00440  0.00440  0.00440  0.00440  0.00440  0.00440  0.00440
 T, K              405.00   410.00   415.00   420.00   425.00   430.00   435.00   440.00
 RHO, KG/CU M    2.6341-4 2.6019-4 2.5706-4 2.5400-4 2.5101-4 2.4809-4 2.4524-4 2.4245-4
 H, KJ/KG         1540.64  1613.06  1685.49  1757.93  1830.39  1902.85  1975.33  2047.81
 U, KJ/KG         -129.78  -77.986  -26.176   25.646   77.479   129.32   181.17   233.03
 G, KJ/KG        -35565.8 -36024.4 -36483.8 -36944.1 -37405.3 -37867.3 -38330.2 -38793.9
 S, KJ/(KG)(K)    91.6209  91.7986  91.9742  92.1478  92.3193  92.4888  92.6563  92.8220

 M, (1/n)           2.016    2.016    2.016    2.016    2.016    2.016    2.016    2.016
 (dLV/dLP)t      -1.00000 -1.00000 -1.00000 -1.00000 -1.00000 -1.00000 -1.00000 -1.00000
 (dLV/dLT)p        1.0000   1.0000   1.0000   1.0000   1.0000   1.0000   1.0000   1.0000
 Cp, KJ/(KG)(K)   14.4825  14.4852  14.4877  14.4900  14.4920  14.4939  14.4957  14.4973
 GAMMAs            1.3982   1.3981   1.3980   1.3979   1.3978   1.3978   1.3977   1.3976
 SON VEL,M/SEC     1528.3   1537.6   1546.9   1556.1   1565.3   1574.5   1583.6   1592.6

 TRANSPORT PROPERTIES (GASES ONLY)
   CONDUCTIVITY IN UNITS OF MILLIWATTS/(CM)(K)

 VISC,MILLIPOISE  0.10653  0.11012  0.11157  0.11259  0.11352  0.11443  0.11533  0.11623

  WITH EQUILIBRIUM REACTIONS

 Cp, KJ/(KG)(K)   14.4825  14.4852  14.4877  14.4900  14.4920  14.4939  14.4957  14.4973
 CONDUCTIVITY      2.0926   2.2880   2.3452   2.3722   2.3929   2.4123   2.4314   2.4503
 PRANDTL NUMBER    0.7373   0.6972   0.6892   0.6877   0.6875   0.6875   0.6876   0.6877

  WITH FROZEN REACTIONS

 Cp, KJ/(KG)(K)   14.4825  14.4852  14.4877  14.4900  14.4920  14.4939  14.4957  14.4973
 CONDUCTIVITY      2.0926   2.2880   2.3452   2.3722   2.3929   2.4123   2.4314   2.4503
 PRANDTL NUMBER    0.7373   0.6972   0.6892   0.6877   0.6875   0.6875   0.6876   0.6877

 MASS FRACTIONS

 *H2              1.00000  1.00000  1.00000  1.00000  1.00000  1.00000  1.00000  1.00000

  * THERMODYNAMIC PROPERTIES FITTED TO 20000.K

 NOTE. WEIGHT FRACTION OF FUEL IN TOTAL FUELS AND OF OXIDANT IN TOTAL OXIDANTS









               THERMODYNAMIC EQUILIBRIUM PROPERTIES AT ASSIGNED

                           TEMPERATURE AND PRESSURE

 CASE =                

             REACTANT                    WT FRACTION      ENERGY      TEMP
                                          (SEE NOTE)     KJ/KG-MOL      K  
 FUEL        H2                           1.0000000         0.000      0.000
 OXIDANT     H2                           1.0000000         0.000      0.000

 O/F=    1.00000  %FUEL= 50.000000  R,EQ.RATIO= 0.000000  PHI,EQ.RATIO=-1.000000

 THERMODYNAMIC PROPERTIES

 P, BAR           0.00440
 T, K              445.00
 RHO, KG/CU M    2.3973-4
 H, KJ/KG         2120.30
 U, KJ/KG          284.90
 G, KJ/KG        -39258.4
 S, KJ/(KG)(K)    92.9858

 M, (1/n)           2.016
 (dLV/dLP)t      -1.00000
 (dLV/dLT)p        1.0000
 Cp, KJ/(KG)(K)   14.4988
 GAMMAs            1.3976
 SON VEL,M/SEC     1601.6

 TRANSPORT PROPERTIES (GASES ONLY)
   CONDUCTIVITY IN UNITS OF MILLIWATTS/(CM)(K)

 VISC,MILLIPOISE  0.11713

  WITH EQUILIBRIUM REACTIONS

 Cp, KJ/(KG)(K)   14.4988
 CONDUCTIVITY      2.4692
 PRANDTL NUMBER    0.6878

  WITH FROZEN REACTIONS

 Cp, KJ/(KG)(K)   14.4988
 CONDUCTIVITY      2.4692
 PRANDTL NUMBER    0.6878

 MASS FRACTIONS

 *H2              1.00000

  * THERMODYNAMIC PROPERTIES FITTED TO 20000.K

 NOTE. WEIGHT FRACTION OF FUEL IN TOTAL FUELS AND OF OXIDANT IN TOTAL OXIDANTS



  
