
 *******************************************************************************

         NASA-GLENN CHEMICAL EQUILIBRIUM PROGRAM CEA2, MAY 21, 2004
                   BY  BONNIE MCBRIDE AND SANFORD GORDON
      REFS: NASA RP-1311, PART I, 1994 AND NASA RP-1311, PART II, 1996

 *******************************************************************************



  prob tp
  p,bar= 10.0,12.5,15.0,20.0,25.0,30.0,40.0,50.0,62.5,80.0,100.0,125.0,150.0,200.
 0,250.0,300.0,400.0,500.0,625.0,800.0
  t,k= 9500,9550,9600,9650,9700,9750,9800,9850,9900,9950
  
  
  reac
  fuel H2                wt%=100.0000
  oxid H2                wt%=100.0000
  
  output short
  
  output massf
  
  output siunits
  
  output transport
  
 end





               THERMODYNAMIC EQUILIBRIUM PROPERTIES AT ASSIGNED

                           TEMPERATURE AND PRESSURE

 CASE =                

             REACTANT                    WT FRACTION      ENERGY      TEMP
                                          (SEE NOTE)     KJ/KG-MOL      K  
 FUEL        H2                           1.0000000         0.000      0.000
 OXIDANT     H2                           1.0000000         0.000      0.000

 O/F=    1.00000  %FUEL= 50.000000  R,EQ.RATIO= 0.000000  PHI,EQ.RATIO=-1.000000

 THERMODYNAMIC PROPERTIES

 P, BAR            10.000   10.000   10.000   10.000   10.000   10.000   10.000   10.000
 T, K             9500.00  9550.00  9600.00  9650.00  9700.00  9750.00  9800.00  9850.00
 RHO, KG/CU M    1.2776-2 1.2709-2 1.2642-2 1.2576-2 1.2511-2 1.2446-2 1.2383-2 1.2319-2
 H, KJ/KG        405505.2 406553.8 407601.8 408649.2 409696.0 410742.4 411788.3 412833.8
 U, KJ/KG        327234.3 327868.1 328501.3 329134.0 329766.3 330398.1 331029.6 331660.7
 G, KJ/KG       -1172986.-1181296.-1189612.-1197934.-1206261.-1214593.-1222931.-1231274.
 S, KJ/(KG)(K)   166.1569 166.2670 166.3765 166.4853 166.5935 166.7011 166.8081 166.9145

 M, (1/n)           1.009    1.009    1.009    1.009    1.009    1.009    1.009    1.009
 (dLV/dLP)t      -1.00121 -1.00117 -1.00113 -1.00110 -1.00107 -1.00104 -1.00101 -1.00098
 (dLV/dLT)p        1.0071   1.0069   1.0066   1.0064   1.0062   1.0060   1.0058   1.0056
 Cp, KJ/(KG)(K)   20.9778  20.9653  20.9535  20.9425  20.9322  20.9227  20.9138  20.9056
 GAMMAs            1.6588   1.6590   1.6593   1.6595   1.6597   1.6598   1.6600   1.6601
 SON VEL,M/SEC    11394.5  11425.5  11456.4  11487.1  11517.7  11548.1  11578.3  11608.4

 TRANSPORT PROPERTIES (GASES ONLY)
   CONDUCTIVITY IN UNITS OF MILLIWATTS/(CM)(K)

 VISC,MILLIPOISE  0.98411  0.98911  0.99412  0.99914   1.0042   1.0092   1.0142   1.0192

  WITH EQUILIBRIUM REACTIONS

 Cp, KJ/(KG)(K)   20.9778  20.9653  20.9535  20.9425  20.9322  20.9227  20.9138  20.9056
 CONDUCTIVITY     31.0241  31.1581  31.2931  31.4291  31.5660  31.7038  31.8424  31.9819
 PRANDTL NUMBER    0.6654   0.6655   0.6657   0.6658   0.6659   0.6660   0.6661   0.6662

  WITH FROZEN REACTIONS

 Cp, KJ/(KG)(K)   20.6328  20.6340  20.6352  20.6367  20.6383  20.6400  20.6419  20.6439
 CONDUCTIVITY     30.4063  30.5620  30.7178  30.8736  31.0295  31.1855  31.3415  31.4975
 PRANDTL NUMBER    0.6678   0.6678   0.6678   0.6678   0.6679   0.6679   0.6680   0.6680

 MASS FRACTIONS

 *H               0.99758  0.99766  0.99773  0.99779  0.99786  0.99792  0.99798  0.99804
 *H2              0.00242  0.00234  0.00227  0.00221  0.00214  0.00208  0.00202  0.00196

  * THERMODYNAMIC PROPERTIES FITTED TO 20000.K

 NOTE. WEIGHT FRACTION OF FUEL IN TOTAL FUELS AND OF OXIDANT IN TOTAL OXIDANTS









               THERMODYNAMIC EQUILIBRIUM PROPERTIES AT ASSIGNED

                           TEMPERATURE AND PRESSURE

 CASE =                

             REACTANT                    WT FRACTION      ENERGY      TEMP
                                          (SEE NOTE)     KJ/KG-MOL      K  
 FUEL        H2                           1.0000000         0.000      0.000
 OXIDANT     H2                           1.0000000         0.000      0.000

 O/F=    1.00000  %FUEL= 50.000000  R,EQ.RATIO= 0.000000  PHI,EQ.RATIO=-1.000000

 THERMODYNAMIC PROPERTIES

 P, BAR            10.000   10.000   12.500   12.500   12.500   12.500   12.500   12.500
 T, K             9900.00  9950.00  9500.00  9550.00  9600.00  9650.00  9700.00  9750.00
 RHO, KG/CU M    1.2257-2 1.2195-2 1.5975-2 1.5891-2 1.5807-2 1.5725-2 1.5643-2 1.5562-2
 H, KJ/KG        413878.9 414923.6 405366.3 406419.0 407471.0 408522.2 409572.7 410622.7
 U, KJ/KG        332291.5 332921.9 327119.0 327756.3 328392.9 329028.9 329664.3 330299.2
 G, KJ/KG       -1239622.-1247976.-1155523.-1163740.-1171964.-1180193.-1188427.-1196667.
 S, KJ/(KG)(K)   167.0203 167.1256 164.3041 164.4146 164.5245 164.6337 164.7423 164.8502

 M, (1/n)           1.009    1.009    1.009    1.009    1.009    1.009    1.009    1.009
 (dLV/dLP)t      -1.00095 -1.00092 -1.00150 -1.00146 -1.00142 -1.00137 -1.00133 -1.00130
 (dLV/dLT)p        1.0054   1.0052   1.0089   1.0086   1.0083   1.0080   1.0077   1.0074
 Cp, KJ/(KG)(K)   20.8981  20.8911  21.0626  21.0466  21.0316  21.0176  21.0044  20.9920
 GAMMAs            1.6602   1.6603   1.6570   1.6574   1.6577   1.6580   1.6582   1.6584
 SON VEL,M/SEC    11638.4  11668.2  11386.8  11418.1  11449.3  11480.2  11511.1  11541.7

 TRANSPORT PROPERTIES (GASES ONLY)
   CONDUCTIVITY IN UNITS OF MILLIWATTS/(CM)(K)

 VISC,MILLIPOISE   1.0242   1.0293  0.98471  0.98970  0.99469  0.99969   1.0047   1.0097

  WITH EQUILIBRIUM REACTIONS

 Cp, KJ/(KG)(K)   20.8981  20.8911  21.0626  21.0466  21.0316  21.0176  21.0044  20.9920
 CONDUCTIVITY     32.1221  32.2630  31.1870  31.3154  31.4450  31.5758  31.7078  31.8409
 PRANDTL NUMBER    0.6664   0.6665   0.6650   0.6652   0.6653   0.6654   0.6655   0.6657

  WITH FROZEN REACTIONS

 Cp, KJ/(KG)(K)   20.6462  20.6486  20.6321  20.6332  20.6345  20.6359  20.6375  20.6393
 CONDUCTIVITY     31.6536  31.8098  30.4160  30.5714  30.7269  30.8825  31.0381  31.1938
 PRANDTL NUMBER    0.6681   0.6681   0.6680   0.6680   0.6680   0.6680   0.6680   0.6681

 MASS FRACTIONS

 *H               0.99809  0.99815  0.99698  0.99707  0.99716  0.99724  0.99733  0.99740
 *H2              0.00191  0.00185  0.00302  0.00293  0.00284  0.00276  0.00267  0.00260

  * THERMODYNAMIC PROPERTIES FITTED TO 20000.K

 NOTE. WEIGHT FRACTION OF FUEL IN TOTAL FUELS AND OF OXIDANT IN TOTAL OXIDANTS









               THERMODYNAMIC EQUILIBRIUM PROPERTIES AT ASSIGNED

                           TEMPERATURE AND PRESSURE

 CASE =                

             REACTANT                    WT FRACTION      ENERGY      TEMP
                                          (SEE NOTE)     KJ/KG-MOL      K  
 FUEL        H2                           1.0000000         0.000      0.000
 OXIDANT     H2                           1.0000000         0.000      0.000

 O/F=    1.00000  %FUEL= 50.000000  R,EQ.RATIO= 0.000000  PHI,EQ.RATIO=-1.000000

 THERMODYNAMIC PROPERTIES

 P, BAR            12.500   12.500   12.500   12.500   15.000   15.000   15.000   15.000
 T, K             9800.00  9850.00  9900.00  9950.00  9500.00  9550.00  9600.00  9650.00
 RHO, KG/CU M    1.5482-2 1.5403-2 1.5325-2 1.5247-2 1.9176-2 1.9074-2 1.8974-2 1.8875-2
 H, KJ/KG        411672.0 412720.7 413769.0 414816.7 405227.6 406284.5 407340.4 408395.5
 U, KJ/KG        330933.6 331567.5 332201.0 332834.0 327003.8 327644.7 328284.7 328924.0
 G, KJ/KG       -1204912.-1213163.-1221419.-1229680.-1141258.-1149401.-1157548.-1165702.
 S, KJ/(KG)(K)   164.9576 165.0643 165.1705 165.2760 162.7880 162.8990 163.0092 163.1189

 M, (1/n)           1.009    1.009    1.009    1.009    1.010    1.010    1.010    1.010
 (dLV/dLP)t      -1.00126 -1.00122 -1.00119 -1.00115 -1.00180 -1.00175 -1.00170 -1.00165
 (dLV/dLT)p        1.0072   1.0070   1.0067   1.0065   1.0106   1.0103   1.0099   1.0096
 Cp, KJ/(KG)(K)   20.9805  20.9698  20.9598  20.9506  21.1471  21.1277  21.1095  21.0924
 GAMMAs            1.6586   1.6588   1.6590   1.6591   1.6553   1.6557   1.6561   1.6564
 SON VEL,M/SEC    11572.2  11602.5  11632.7  11662.7  11379.2  11410.8  11442.2  11473.5

 TRANSPORT PROPERTIES (GASES ONLY)
   CONDUCTIVITY IN UNITS OF MILLIWATTS/(CM)(K)

 VISC,MILLIPOISE   1.0147   1.0197   1.0247   1.0297  0.98530  0.99028  0.99526   1.0002

  WITH EQUILIBRIUM REACTIONS

 Cp, KJ/(KG)(K)   20.9805  20.9698  20.9598  20.9506  21.1471  21.1277  21.1095  21.0924
 CONDUCTIVITY     31.9750  32.1101  32.2462  32.3831  31.3495  31.4722  31.5965  31.7222
 PRANDTL NUMBER    0.6658   0.6659   0.6661   0.6662   0.6646   0.6648   0.6649   0.6651

  WITH FROZEN REACTIONS

 Cp, KJ/(KG)(K)   20.6411  20.6432  20.6454  20.6478  20.6314  20.6325  20.6338  20.6352
 CONDUCTIVITY     31.3496  31.5054  31.6613  31.8172  30.4256  30.5808  30.7360  30.8913
 PRANDTL NUMBER    0.6681   0.6681   0.6682   0.6683   0.6681   0.6681   0.6681   0.6682

 MASS FRACTIONS

 *H               0.99748  0.99755  0.99762  0.99769  0.99638  0.99649  0.99660  0.99670
 *H2              0.00252  0.00245  0.00238  0.00231  0.00362  0.00351  0.00340  0.00330

  * THERMODYNAMIC PROPERTIES FITTED TO 20000.K

 NOTE. WEIGHT FRACTION OF FUEL IN TOTAL FUELS AND OF OXIDANT IN TOTAL OXIDANTS









               THERMODYNAMIC EQUILIBRIUM PROPERTIES AT ASSIGNED

                           TEMPERATURE AND PRESSURE

 CASE =                

             REACTANT                    WT FRACTION      ENERGY      TEMP
                                          (SEE NOTE)     KJ/KG-MOL      K  
 FUEL        H2                           1.0000000         0.000      0.000
 OXIDANT     H2                           1.0000000         0.000      0.000

 O/F=    1.00000  %FUEL= 50.000000  R,EQ.RATIO= 0.000000  PHI,EQ.RATIO=-1.000000

 THERMODYNAMIC PROPERTIES

 P, BAR            15.000   15.000   15.000   15.000   15.000   15.000   20.000   20.000
 T, K             9700.00  9750.00  9800.00  9850.00  9900.00  9950.00  9500.00  9550.00
 RHO, KG/CU M    1.8776-2 1.8679-2 1.8583-2 1.8488-2 1.8394-2 1.8301-2 2.5583-2 2.5447-2
 H, KJ/KG        409449.7 410503.1 411555.8 412607.8 413659.2 414710.0 404951.1 406016.2
 U, KJ/KG        329562.6 330200.5 330837.7 331474.4 332110.6 332746.2 326774.2 327422.1
 G, KJ/KG       -1173860.-1182024.-1190194.-1198369.-1206549.-1214734.-1118761.-1126784.
 S, KJ/(KG)(K)   163.2278 163.3361 163.4438 163.5509 163.6574 163.7633 160.3908 160.5026

 M, (1/n)           1.010    1.010    1.009    1.009    1.009    1.009    1.010    1.010
 (dLV/dLP)t      -1.00160 -1.00155 -1.00151 -1.00146 -1.00142 -1.00138 -1.00240 -1.00232
 (dLV/dLT)p        1.0092   1.0089   1.0086   1.0083   1.0081   1.0078   1.0141   1.0136
 Cp, KJ/(KG)(K)   21.0763  21.0612  21.0471  21.0338  21.0215  21.0099  21.3151  21.2890
 GAMMAs            1.6568   1.6571   1.6573   1.6575   1.6578   1.6579   1.6520   1.6525
 SON VEL,M/SEC    11504.5  11535.4  11566.1  11596.7  11627.0  11657.2  11364.2  11396.4

 TRANSPORT PROPERTIES (GASES ONLY)
   CONDUCTIVITY IN UNITS OF MILLIWATTS/(CM)(K)

 VISC,MILLIPOISE   1.0052   1.0102   1.0152   1.0202   1.0252   1.0302  0.98650  0.99144

  WITH EQUILIBRIUM REACTIONS

 Cp, KJ/(KG)(K)   21.0763  21.0612  21.0471  21.0338  21.0215  21.0099  21.3151  21.2890
 CONDUCTIVITY     31.8493  31.9777  32.1073  32.2381  32.3700  32.5030  31.6730  31.7846
 PRANDTL NUMBER    0.6652   0.6654   0.6655   0.6656   0.6658   0.6659   0.6639   0.6641

  WITH FROZEN REACTIONS

 Cp, KJ/(KG)(K)   20.6368  20.6385  20.6404  20.6425  20.6447  20.6471  20.6300  20.6311
 CONDUCTIVITY     31.0467  31.2022  31.3577  31.5133  31.6690  31.8247  30.4448  30.5994
 PRANDTL NUMBER    0.6682   0.6682   0.6682   0.6683   0.6683   0.6684   0.6685   0.6685

 MASS FRACTIONS

 *H               0.99679  0.99689  0.99698  0.99706  0.99714  0.99722  0.99518  0.99533
 *H2              0.00321  0.00311  0.00302  0.00294  0.00286  0.00278  0.00482  0.00467

  * THERMODYNAMIC PROPERTIES FITTED TO 20000.K

 NOTE. WEIGHT FRACTION OF FUEL IN TOTAL FUELS AND OF OXIDANT IN TOTAL OXIDANTS









               THERMODYNAMIC EQUILIBRIUM PROPERTIES AT ASSIGNED

                           TEMPERATURE AND PRESSURE

 CASE =                

             REACTANT                    WT FRACTION      ENERGY      TEMP
                                          (SEE NOTE)     KJ/KG-MOL      K  
 FUEL        H2                           1.0000000         0.000      0.000
 OXIDANT     H2                           1.0000000         0.000      0.000

 O/F=    1.00000  %FUEL= 50.000000  R,EQ.RATIO= 0.000000  PHI,EQ.RATIO=-1.000000

 THERMODYNAMIC PROPERTIES

 P, BAR            20.000   20.000   20.000   20.000   20.000   20.000   20.000   20.000
 T, K             9600.00  9650.00  9700.00  9750.00  9800.00  9850.00  9900.00  9950.00
 RHO, KG/CU M    2.5313-2 2.5180-2 2.5049-2 2.4919-2 2.4790-2 2.4663-2 2.4537-2 2.4412-2
 H, KJ/KG        407080.0 408142.6 409204.1 410264.6 411324.0 412382.6 413440.2 414497.0
 U, KJ/KG        328068.9 328714.7 329359.5 330003.4 330646.5 331288.7 331930.2 332571.0
 G, KJ/KG       -1134812.-1142845.-1150884.-1158928.-1166978.-1175033.-1183094.-1191160.
 S, KJ/(KG)(K)   160.6137 160.7241 160.8338 160.9429 161.0512 161.1590 161.2661 161.3726

 M, (1/n)           1.010    1.010    1.010    1.010    1.010    1.010    1.010    1.010
 (dLV/dLP)t      -1.00226 -1.00219 -1.00213 -1.00206 -1.00200 -1.00195 -1.00189 -1.00184
 (dLV/dLT)p        1.0132   1.0127   1.0123   1.0119   1.0115   1.0111   1.0107   1.0104
 Cp, KJ/(KG)(K)   21.2645  21.2413  21.2195  21.1989  21.1795  21.1613  21.1441  21.1281
 GAMMAs            1.6530   1.6535   1.6539   1.6543   1.6547   1.6550   1.6554   1.6556
 SON VEL,M/SEC    11428.3  11460.1  11491.6  11523.0  11554.1  11585.1  11615.9  11646.5

 TRANSPORT PROPERTIES (GASES ONLY)
   CONDUCTIVITY IN UNITS OF MILLIWATTS/(CM)(K)

 VISC,MILLIPOISE  0.99639   1.0014   1.0063   1.0113   1.0162   1.0212   1.0262   1.0312

  WITH EQUILIBRIUM REACTIONS

 Cp, KJ/(KG)(K)   21.2645  21.2413  21.2195  21.1989  21.1795  21.1613  21.1441  21.1281
 CONDUCTIVITY     31.8982  32.0137  32.1311  32.2501  32.3708  32.4931  32.6168  32.7419
 PRANDTL NUMBER    0.6642   0.6644   0.6646   0.6647   0.6649   0.6651   0.6652   0.6654

  WITH FROZEN REACTIONS

 Cp, KJ/(KG)(K)   20.6324  20.6338  20.6353  20.6371  20.6389  20.6410  20.6432  20.6456
 CONDUCTIVITY     30.7541  30.9089  31.0638  31.2188  31.3739  31.5291  31.6843  31.8396
 PRANDTL NUMBER    0.6685   0.6685   0.6685   0.6685   0.6685   0.6686   0.6686   0.6686

 MASS FRACTIONS

 *H               0.99547  0.99560  0.99573  0.99585  0.99597  0.99609  0.99620  0.99630
 *H2              0.00453  0.00440  0.00427  0.00415  0.00403  0.00391  0.00380  0.00370

  * THERMODYNAMIC PROPERTIES FITTED TO 20000.K

 NOTE. WEIGHT FRACTION OF FUEL IN TOTAL FUELS AND OF OXIDANT IN TOTAL OXIDANTS









               THERMODYNAMIC EQUILIBRIUM PROPERTIES AT ASSIGNED

                           TEMPERATURE AND PRESSURE

 CASE =                

             REACTANT                    WT FRACTION      ENERGY      TEMP
                                          (SEE NOTE)     KJ/KG-MOL      K  
 FUEL        H2                           1.0000000         0.000      0.000
 OXIDANT     H2                           1.0000000         0.000      0.000

 O/F=    1.00000  %FUEL= 50.000000  R,EQ.RATIO= 0.000000  PHI,EQ.RATIO=-1.000000

 THERMODYNAMIC PROPERTIES

 P, BAR            25.000   25.000   25.000   25.000   25.000   25.000   25.000   25.000
 T, K             9500.00  9550.00  9600.00  9650.00  9700.00  9750.00  9800.00  9850.00
 RHO, KG/CU M    3.1998-2 3.1827-2 3.1659-2 3.1492-2 3.1327-2 3.1164-2 3.1003-2 3.0843-2
 H, KJ/KG        404675.5 405748.7 406820.4 407890.6 408959.4 410026.8 411093.0 412157.9
 U, KJ/KG        326545.4 327200.3 327853.8 328506.1 329157.1 329807.0 330455.8 331103.5
 G, KJ/KG       -1101322.-1109251.-1117185.-1125126.-1133072.-1141023.-1148980.-1156942.
 S, KJ/(KG)(K)   158.5260 158.6387 158.7506 158.8618 158.9723 159.0820 159.1911 159.2995

 M, (1/n)           1.011    1.011    1.011    1.011    1.011    1.011    1.010    1.010
 (dLV/dLP)t      -1.00299 -1.00290 -1.00281 -1.00273 -1.00265 -1.00257 -1.00250 -1.00243
 (dLV/dLT)p        1.0176   1.0170   1.0164   1.0158   1.0153   1.0148   1.0143   1.0138
 Cp, KJ/(KG)(K)   21.4818  21.4492  21.4184  21.3893  21.3617  21.3357  21.3111  21.2880
 GAMMAs            1.6487   1.6494   1.6500   1.6506   1.6512   1.6517   1.6522   1.6526
 SON VEL,M/SEC    11349.5  11382.2  11414.7  11446.9  11478.9  11510.7  11542.3  11573.7

 TRANSPORT PROPERTIES (GASES ONLY)
   CONDUCTIVITY IN UNITS OF MILLIWATTS/(CM)(K)

 VISC,MILLIPOISE  0.98768  0.99260  0.99752   1.0025   1.0074   1.0123   1.0173   1.0222

  WITH EQUILIBRIUM REACTIONS

 Cp, KJ/(KG)(K)   21.4818  21.4492  21.4184  21.3893  21.3617  21.3357  21.3111  21.2880
 CONDUCTIVITY     31.9945  32.0952  32.1983  32.3037  32.4114  32.5213  32.6331  32.7468
 PRANDTL NUMBER    0.6632   0.6634   0.6636   0.6638   0.6639   0.6641   0.6643   0.6645

  WITH FROZEN REACTIONS

 Cp, KJ/(KG)(K)   20.6286  20.6297  20.6309  20.6323  20.6339  20.6356  20.6375  20.6395
 CONDUCTIVITY     30.4640  30.6180  30.7722  30.9265  31.0809  31.2354  31.3900  31.5448
 PRANDTL NUMBER    0.6688   0.6688   0.6688   0.6688   0.6688   0.6688   0.6688   0.6688

 MASS FRACTIONS

 *H               0.99399  0.99417  0.99434  0.99451  0.99467  0.99483  0.99497  0.99512
 *H2              0.00601  0.00583  0.00566  0.00549  0.00533  0.00517  0.00503  0.00488

  * THERMODYNAMIC PROPERTIES FITTED TO 20000.K

 NOTE. WEIGHT FRACTION OF FUEL IN TOTAL FUELS AND OF OXIDANT IN TOTAL OXIDANTS









               THERMODYNAMIC EQUILIBRIUM PROPERTIES AT ASSIGNED

                           TEMPERATURE AND PRESSURE

 CASE =                

             REACTANT                    WT FRACTION      ENERGY      TEMP
                                          (SEE NOTE)     KJ/KG-MOL      K  
 FUEL        H2                           1.0000000         0.000      0.000
 OXIDANT     H2                           1.0000000         0.000      0.000

 O/F=    1.00000  %FUEL= 50.000000  R,EQ.RATIO= 0.000000  PHI,EQ.RATIO=-1.000000

 THERMODYNAMIC PROPERTIES

 P, BAR            25.000   25.000   30.000   30.000   30.000   30.000   30.000   30.000
 T, K             9900.00  9950.00  9500.00  9550.00  9600.00  9650.00  9700.00  9750.00
 RHO, KG/CU M    3.0686-2 3.0529-2 3.8420-2 3.8215-2 3.8012-2 3.7811-2 3.7613-2 3.7416-2
 H, KJ/KG        413221.8 414284.6 404400.9 405482.3 406561.7 407639.4 408715.4 409789.8
 U, KJ/KG        331750.3 332396.2 326317.4 326979.2 327639.5 328298.2 328955.4 329611.2
 G, KJ/KG       -1164910.-1172883.-1087081.-1094934.-1102792.-1110656.-1118526.-1126401.
 S, KJ/(KG)(K)   159.4072 159.5143 156.9981 157.1116 157.2244 157.3363 157.4475 157.5580

 M, (1/n)           1.010    1.010    1.012    1.011    1.011    1.011    1.011    1.011
 (dLV/dLP)t      -1.00236 -1.00230 -1.00357 -1.00347 -1.00336 -1.00327 -1.00317 -1.00308
 (dLV/dLT)p        1.0134   1.0130   1.0211   1.0203   1.0196   1.0190   1.0183   1.0177
 Cp, KJ/(KG)(K)   21.2661  21.2455  21.6474  21.6083  21.5713  21.5362  21.5031  21.4717
 GAMMAs            1.6530   1.6534   1.6455   1.6463   1.6471   1.6478   1.6484   1.6491
 SON VEL,M/SEC    11604.9  11635.8  11335.2  11368.4  11401.3  11434.0  11466.5  11498.7

 TRANSPORT PROPERTIES (GASES ONLY)
   CONDUCTIVITY IN UNITS OF MILLIWATTS/(CM)(K)

 VISC,MILLIPOISE   1.0272   1.0321  0.98887  0.99375  0.99865   1.0035   1.0085   1.0134

  WITH EQUILIBRIUM REACTIONS

 Cp, KJ/(KG)(K)   21.2661  21.2455  21.6474  21.6083  21.5713  21.5362  21.5031  21.4717
 CONDUCTIVITY     32.8624  32.9797  32.3142  32.4040  32.4967  32.5922  32.6903  32.7910
 PRANDTL NUMBER    0.6647   0.6649   0.6624   0.6627   0.6629   0.6631   0.6633   0.6636

  WITH FROZEN REACTIONS

 Cp, KJ/(KG)(K)   20.6417  20.6441  20.6272  20.6283  20.6295  20.6309  20.6324  20.6341
 CONDUCTIVITY     31.6996  31.8545  30.4830  30.6365  30.7902  30.9440  31.0979  31.2520
 PRANDTL NUMBER    0.6689   0.6689   0.6691   0.6691   0.6691   0.6691   0.6691   0.6691

 MASS FRACTIONS

 *H               0.99526  0.99539  0.99280  0.99302  0.99322  0.99342  0.99362  0.99380
 *H2              0.00474  0.00461  0.00720  0.00698  0.00678  0.00658  0.00638  0.00620

  * THERMODYNAMIC PROPERTIES FITTED TO 20000.K

 NOTE. WEIGHT FRACTION OF FUEL IN TOTAL FUELS AND OF OXIDANT IN TOTAL OXIDANTS









               THERMODYNAMIC EQUILIBRIUM PROPERTIES AT ASSIGNED

                           TEMPERATURE AND PRESSURE

 CASE =                

             REACTANT                    WT FRACTION      ENERGY      TEMP
                                          (SEE NOTE)     KJ/KG-MOL      K  
 FUEL        H2                           1.0000000         0.000      0.000
 OXIDANT     H2                           1.0000000         0.000      0.000

 O/F=    1.00000  %FUEL= 50.000000  R,EQ.RATIO= 0.000000  PHI,EQ.RATIO=-1.000000

 THERMODYNAMIC PROPERTIES

 P, BAR            30.000   30.000   30.000   30.000   40.000   40.000   40.000   40.000
 T, K             9800.00  9850.00  9900.00  9950.00  9500.00  9550.00  9600.00  9650.00
 RHO, KG/CU M    3.7222-2 3.7030-2 3.6840-2 3.6652-2 5.1288-2 5.1012-2 5.0740-2 5.0470-2
 H, KJ/KG        410862.6 411934.0 413004.0 414072.7 403854.6 404952.1 406047.0 407139.5
 U, KJ/KG        330265.6 330918.9 331570.9 332221.9 325863.8 326539.5 327212.9 327884.3
 G, KJ/KG       -1134282.-1142168.-1150059.-1157956.-1064630.-1072362.-1080100.-1087843.
 S, KJ/(KG)(K)   157.6678 157.7768 157.8852 157.9929 154.5774 154.6926 154.8069 154.9205

 M, (1/n)           1.011    1.011    1.011    1.011    1.013    1.013    1.012    1.012
 (dLV/dLP)t      -1.00299 -1.00291 -1.00283 -1.00275 -1.00474 -1.00460 -1.00446 -1.00433
 (dLV/dLT)p        1.0171   1.0166   1.0160   1.0155   1.0279   1.0270   1.0260   1.0251
 Cp, KJ/(KG)(K)   21.4420  21.4139  21.3874  21.3623  21.9750  21.9231  21.8739  21.8273
 GAMMAs            1.6497   1.6502   1.6507   1.6512   1.6393   1.6404   1.6414   1.6423
 SON VEL,M/SEC    11530.7  11562.5  11594.0  11625.4  11307.2  11341.4  11375.3  11408.8

 TRANSPORT PROPERTIES (GASES ONLY)
   CONDUCTIVITY IN UNITS OF MILLIWATTS/(CM)(K)

 VISC,MILLIPOISE   1.0183   1.0232   1.0281   1.0331  0.99121  0.99604   1.0009   1.0057

  WITH EQUILIBRIUM REACTIONS

 Cp, KJ/(KG)(K)   21.4420  21.4139  21.3874  21.3623  21.9750  21.9231  21.8739  21.8273
 CONDUCTIVITY     32.8941  32.9994  33.1069  33.2165  32.9480  33.0164  33.0886  33.1644
 PRANDTL NUMBER    0.6638   0.6640   0.6642   0.6644   0.6611   0.6614   0.6617   0.6619

  WITH FROZEN REACTIONS

 Cp, KJ/(KG)(K)   20.6360  20.6380  20.6402  20.6426  20.6244  20.6254  20.6266  20.6280
 CONDUCTIVITY     31.4061  31.5604  31.7148  31.8693  30.5210  30.6734  30.8260  30.9788
 PRANDTL NUMBER    0.6691   0.6691   0.6691   0.6692   0.6698   0.6698   0.6697   0.6697

 MASS FRACTIONS

 *H               0.99398  0.99415  0.99431  0.99447  0.99043  0.99072  0.99100  0.99126
 *H2              0.00602  0.00585  0.00569  0.00553  0.00957  0.00928  0.00900  0.00874

  * THERMODYNAMIC PROPERTIES FITTED TO 20000.K

 NOTE. WEIGHT FRACTION OF FUEL IN TOTAL FUELS AND OF OXIDANT IN TOTAL OXIDANTS









               THERMODYNAMIC EQUILIBRIUM PROPERTIES AT ASSIGNED

                           TEMPERATURE AND PRESSURE

 CASE =                

             REACTANT                    WT FRACTION      ENERGY      TEMP
                                          (SEE NOTE)     KJ/KG-MOL      K  
 FUEL        H2                           1.0000000         0.000      0.000
 OXIDANT     H2                           1.0000000         0.000      0.000

 O/F=    1.00000  %FUEL= 50.000000  R,EQ.RATIO= 0.000000  PHI,EQ.RATIO=-1.000000

 THERMODYNAMIC PROPERTIES

 P, BAR            40.000   40.000   40.000   40.000   40.000   40.000   50.000   50.000
 T, K             9700.00  9750.00  9800.00  9850.00  9900.00  9950.00  9500.00  9550.00
 RHO, KG/CU M    5.0203-2 4.9940-2 4.9679-2 4.9421-2 4.9166-2 4.8914-2 6.4186-2 6.3838-2
 H, KJ/KG        408229.7 409317.8 410403.9 411488.0 412570.3 413650.8 403312.3 404425.5
 U, KJ/KG        328553.8 329221.3 329887.1 330551.2 331213.7 331874.8 325413.5 326102.7
 G, KJ/KG       -1095592.-1103346.-1111106.-1118872.-1126643.-1134419.-1047237.-1054875.
 S, KJ/(KG)(K)   155.0331 155.1450 155.2561 155.3665 155.4761 155.5849 152.6894 152.8063

 M, (1/n)           1.012    1.012    1.012    1.012    1.012    1.012    1.014    1.014
 (dLV/dLP)t      -1.00421 -1.00409 -1.00397 -1.00386 -1.00375 -1.00365 -1.00589 -1.00571
 (dLV/dLT)p        1.0243   1.0235   1.0227   1.0220   1.0213   1.0206   1.0347   1.0335
 Cp, KJ/(KG)(K)   21.7831  21.7411  21.7013  21.6636  21.6279  21.5940  22.2979  22.2336
 GAMMAs            1.6432   1.6440   1.6448   1.6455   1.6462   1.6468   1.6335   1.6347
 SON VEL,M/SEC    11442.2  11475.2  11508.0  11540.5  11572.8  11604.9  11280.4  11315.4

 TRANSPORT PROPERTIES (GASES ONLY)
   CONDUCTIVITY IN UNITS OF MILLIWATTS/(CM)(K)

 VISC,MILLIPOISE   1.0106   1.0154   1.0203   1.0252   1.0301   1.0350  0.99354  0.99831

  WITH EQUILIBRIUM REACTIONS

 Cp, KJ/(KG)(K)   21.7831  21.7411  21.7013  21.6636  21.6279  21.5940  22.2979  22.2336
 CONDUCTIVITY     33.2438  33.3264  33.4122  33.5010  33.5926  33.6869  33.5745  33.6219
 PRANDTL NUMBER    0.6622   0.6624   0.6627   0.6629   0.6632   0.6634   0.6598   0.6602

  WITH FROZEN REACTIONS

 Cp, KJ/(KG)(K)   20.6295  20.6312  20.6331  20.6351  20.6373  20.6397  20.6216  20.6226
 CONDUCTIVITY     31.1318  31.2849  31.4382  31.5916  31.7452  31.8989  30.5586  30.7100
 PRANDTL NUMBER    0.6697   0.6696   0.6696   0.6696   0.6696   0.6697   0.6705   0.6704

 MASS FRACTIONS

 *H               0.99152  0.99176  0.99200  0.99222  0.99244  0.99265  0.98809  0.98844
 *H2              0.00848  0.00824  0.00800  0.00778  0.00756  0.00735  0.01191  0.01156

  * THERMODYNAMIC PROPERTIES FITTED TO 20000.K

 NOTE. WEIGHT FRACTION OF FUEL IN TOTAL FUELS AND OF OXIDANT IN TOTAL OXIDANTS









               THERMODYNAMIC EQUILIBRIUM PROPERTIES AT ASSIGNED

                           TEMPERATURE AND PRESSURE

 CASE =                

             REACTANT                    WT FRACTION      ENERGY      TEMP
                                          (SEE NOTE)     KJ/KG-MOL      K  
 FUEL        H2                           1.0000000         0.000      0.000
 OXIDANT     H2                           1.0000000         0.000      0.000

 O/F=    1.00000  %FUEL= 50.000000  R,EQ.RATIO= 0.000000  PHI,EQ.RATIO=-1.000000

 THERMODYNAMIC PROPERTIES

 P, BAR            50.000   50.000   50.000   50.000   50.000   50.000   50.000   50.000
 T, K             9600.00  9650.00  9700.00  9750.00  9800.00  9850.00  9900.00  9950.00
 RHO, KG/CU M    6.3495-2 6.3156-2 6.2820-2 6.2488-2 6.2160-2 6.1836-2 6.1515-2 6.1198-2
 H, KJ/KG        405535.7 406642.8 407747.2 408848.8 409947.9 411044.6 412139.0 413231.2
 U, KJ/KG        326789.3 327473.2 328154.7 328833.9 329510.8 330185.7 330858.5 331529.5
 G, KJ/KG       -1062518.-1070167.-1077822.-1085482.-1093148.-1100820.-1108497.-1116180.
 S, KJ/(KG)(K)   152.9222 153.0373 153.1514 153.2647 153.3771 153.4888 153.5996 153.7096

 M, (1/n)           1.014    1.013    1.013    1.013    1.013    1.013    1.013    1.013
 (dLV/dLP)t      -1.00555 -1.00538 -1.00523 -1.00508 -1.00494 -1.00480 -1.00467 -1.00454
 (dLV/dLT)p        1.0324   1.0313   1.0302   1.0292   1.0283   1.0273   1.0265   1.0256
 Cp, KJ/(KG)(K)   22.1725  22.1145  22.0595  22.0072  21.9575  21.9104  21.8656  21.8232
 GAMMAs            1.6359   1.6371   1.6382   1.6392   1.6401   1.6410   1.6419   1.6427
 SON VEL,M/SEC    11350.1  11384.5  11418.6  11452.4  11486.0  11519.2  11552.2  11584.9

 TRANSPORT PROPERTIES (GASES ONLY)
   CONDUCTIVITY IN UNITS OF MILLIWATTS/(CM)(K)

 VISC,MILLIPOISE   1.0031   1.0079   1.0127   1.0175   1.0223   1.0272   1.0320   1.0368

  WITH EQUILIBRIUM REACTIONS

 Cp, KJ/(KG)(K)   22.1725  22.1145  22.0595  22.0072  21.9575  21.9104  21.8656  21.8232
 CONDUCTIVITY     33.6740  33.7307  33.7915  33.8565  33.9253  33.9978  34.0738  34.1530
 PRANDTL NUMBER    0.6605   0.6608   0.6611   0.6614   0.6617   0.6620   0.6622   0.6625

  WITH FROZEN REACTIONS

 Cp, KJ/(KG)(K)   20.6238  20.6252  20.6267  20.6284  20.6302  20.6322  20.6344  20.6368
 CONDUCTIVITY     30.8616  31.0134  31.1654  31.3176  31.4700  31.6226  31.7754  31.9283
 PRANDTL NUMBER    0.6703   0.6703   0.6702   0.6702   0.6702   0.6702   0.6702   0.6702

 MASS FRACTIONS

 *H               0.98878  0.98911  0.98943  0.98973  0.99002  0.99031  0.99058  0.99084
 *H2              0.01122  0.01089  0.01057  0.01027  0.00998  0.00969  0.00942  0.00916

  * THERMODYNAMIC PROPERTIES FITTED TO 20000.K

 NOTE. WEIGHT FRACTION OF FUEL IN TOTAL FUELS AND OF OXIDANT IN TOTAL OXIDANTS









               THERMODYNAMIC EQUILIBRIUM PROPERTIES AT ASSIGNED

                           TEMPERATURE AND PRESSURE

 CASE =                

             REACTANT                    WT FRACTION      ENERGY      TEMP
                                          (SEE NOTE)     KJ/KG-MOL      K  
 FUEL        H2                           1.0000000         0.000      0.000
 OXIDANT     H2                           1.0000000         0.000      0.000

 O/F=    1.00000  %FUEL= 50.000000  R,EQ.RATIO= 0.000000  PHI,EQ.RATIO=-1.000000

 THERMODYNAMIC PROPERTIES

 P, BAR            62.500   62.500   62.500   62.500   62.500   62.500   62.500   62.500
 T, K             9500.00  9550.00  9600.00  9650.00  9700.00  9750.00  9800.00  9850.00
 RHO, KG/CU M    8.0350-2 7.9912-2 7.9478-2 7.9050-2 7.8627-2 7.8209-2 7.7796-2 7.7388-2
 H, KJ/KG        402639.7 403772.4 404901.3 406026.5 407148.2 408266.6 409381.8 410494.0
 U, KJ/KG        324855.0 325561.0 326263.6 326963.0 327659.4 328352.9 329043.6 329731.7
 G, KJ/KG       -1029867.-1037409.-1044958.-1052512.-1060072.-1067638.-1075210.-1082787.
 S, KJ/(KG)(K)   150.7902 150.9091 151.0270 151.1439 151.2598 151.3748 151.4889 151.6021

 M, (1/n)           1.015    1.015    1.015    1.015    1.015    1.014    1.014    1.014
 (dLV/dLP)t      -1.00730 -1.00709 -1.00688 -1.00669 -1.00649 -1.00631 -1.00613 -1.00596
 (dLV/dLT)p        1.0430   1.0416   1.0402   1.0388   1.0375   1.0363   1.0351   1.0340
 Cp, KJ/(KG)(K)   22.6950  22.6156  22.5401  22.4683  22.4001  22.3352  22.2735  22.2148
 GAMMAs            1.6265   1.6281   1.6295   1.6309   1.6322   1.6334   1.6345   1.6357
 SON VEL,M/SEC    11248.1  11284.2  11319.9  11355.2  11390.3  11425.0  11459.4  11493.4

 TRANSPORT PROPERTIES (GASES ONLY)
   CONDUCTIVITY IN UNITS OF MILLIWATTS/(CM)(K)

 VISC,MILLIPOISE  0.99642   1.0011   1.0058   1.0106   1.0153   1.0201   1.0248   1.0296

  WITH EQUILIBRIUM REACTIONS

 Cp, KJ/(KG)(K)   22.6950  22.6156  22.5401  22.4683  22.4001  22.3352  22.2735  22.2148
 CONDUCTIVITY     34.3474  34.3692  34.3969  34.4300  34.4684  34.5117  34.5597  34.6123
 PRANDTL NUMBER    0.6584   0.6588   0.6591   0.6595   0.6598   0.6602   0.6605   0.6608

  WITH FROZEN REACTIONS

 Cp, KJ/(KG)(K)   20.6181  20.6191  20.6203  20.6216  20.6231  20.6248  20.6266  20.6286
 CONDUCTIVITY     30.6053  30.7554  30.9058  31.0564  31.2072  31.3583  31.5096  31.6611
 PRANDTL NUMBER    0.6713   0.6712   0.6711   0.6710   0.6710   0.6709   0.6709   0.6708

 MASS FRACTIONS

 *H               0.98517  0.98561  0.98604  0.98645  0.98684  0.98721  0.98758  0.98793
 *H2              0.01483  0.01439  0.01396  0.01355  0.01316  0.01279  0.01242  0.01207

  * THERMODYNAMIC PROPERTIES FITTED TO 20000.K

 NOTE. WEIGHT FRACTION OF FUEL IN TOTAL FUELS AND OF OXIDANT IN TOTAL OXIDANTS









               THERMODYNAMIC EQUILIBRIUM PROPERTIES AT ASSIGNED

                           TEMPERATURE AND PRESSURE

 CASE =                

             REACTANT                    WT FRACTION      ENERGY      TEMP
                                          (SEE NOTE)     KJ/KG-MOL      K  
 FUEL        H2                           1.0000000         0.000      0.000
 OXIDANT     H2                           1.0000000         0.000      0.000

 O/F=    1.00000  %FUEL= 50.000000  R,EQ.RATIO= 0.000000  PHI,EQ.RATIO=-1.000000

 THERMODYNAMIC PROPERTIES

 P, BAR            62.500   62.500   80.000   80.000   80.000   80.000   80.000   80.000
 T, K             9900.00  9950.00  9500.00  9550.00  9600.00  9650.00  9700.00  9750.00
 RHO, KG/CU M    7.6984-2 7.6584-2 1.0306-1 1.0249-1 1.0193-1 1.0137-1 1.0083-1 1.0028-1
 H, KJ/KG        411603.3 412709.9 401708.0 402867.5 404022.1 405172.0 406317.5 407458.9
 U, KJ/KG        330417.3 331100.6 324081.4 324810.4 325535.0 326255.7 326972.5 327685.6
 G, KJ/KG       -1090370.-1097958.-1010684.-1018120.-1025563.-1033012.-1040467.-1047927.
 S, KJ/(KG)(K)   151.7145 151.8260 148.6728 148.7945 148.9151 149.0346 149.1530 149.2704

 M, (1/n)           1.014    1.014    1.018    1.017    1.017    1.017    1.016    1.016
 (dLV/dLP)t      -1.00580 -1.00564 -1.00925 -1.00898 -1.00873 -1.00848 -1.00824 -1.00801
 (dLV/dLT)p        1.0329   1.0318   1.0545   1.0527   1.0509   1.0492   1.0476   1.0460
 Cp, KJ/(KG)(K)   22.1591  22.1061  23.2392  23.1394  23.0444  22.9540  22.8679  22.7860
 GAMMAs            1.6367   1.6377   1.6175   1.6193   1.6210   1.6227   1.6242   1.6257
 SON VEL,M/SEC    11527.2  11560.7  11205.3  11242.6  11279.6  11316.1  11352.3  11388.2

 TRANSPORT PROPERTIES (GASES ONLY)
   CONDUCTIVITY IN UNITS OF MILLIWATTS/(CM)(K)

 VISC,MILLIPOISE   1.0344   1.0392   1.0004   1.0050   1.0096   1.0143   1.0189   1.0236

  WITH EQUILIBRIUM REACTIONS

 Cp, KJ/(KG)(K)   22.1591  22.1061  23.2392  23.1394  23.0444  22.9540  22.8679  22.7860
 CONDUCTIVITY     34.6691  34.7300  35.4109  35.3981  35.3925  35.3938  35.4015  35.4154
 PRANDTL NUMBER    0.6611   0.6614   0.6565   0.6570   0.6574   0.6578   0.6582   0.6586

  WITH FROZEN REACTIONS

 Cp, KJ/(KG)(K)   20.6308  20.6331  20.6133  20.6143  20.6154  20.6167  20.6182  20.6198
 CONDUCTIVITY     31.8129  31.9648  30.6700  30.8183  30.9669  31.1159  31.2651  31.4147
 PRANDTL NUMBER    0.6708   0.6708   0.6724   0.6722   0.6721   0.6720   0.6719   0.6719

 MASS FRACTIONS

 *H               0.98826  0.98859  0.98114  0.98170  0.98223  0.98275  0.98324  0.98372
 *H2              0.01174  0.01141  0.01886  0.01830  0.01777  0.01725  0.01676  0.01628

  * THERMODYNAMIC PROPERTIES FITTED TO 20000.K

 NOTE. WEIGHT FRACTION OF FUEL IN TOTAL FUELS AND OF OXIDANT IN TOTAL OXIDANTS









               THERMODYNAMIC EQUILIBRIUM PROPERTIES AT ASSIGNED

                           TEMPERATURE AND PRESSURE

 CASE =                

             REACTANT                    WT FRACTION      ENERGY      TEMP
                                          (SEE NOTE)     KJ/KG-MOL      K  
 FUEL        H2                           1.0000000         0.000      0.000
 OXIDANT     H2                           1.0000000         0.000      0.000

 O/F=    1.00000  %FUEL= 50.000000  R,EQ.RATIO= 0.000000  PHI,EQ.RATIO=-1.000000

 THERMODYNAMIC PROPERTIES

 P, BAR            80.000   80.000   80.000   80.000   100.00   100.00   100.00   100.00
 T, K             9800.00  9850.00  9900.00  9950.00  9500.00  9550.00  9600.00  9650.00
 RHO, KG/CU M    9.9749-2 9.9221-2 9.8699-2 9.8182-2 1.2912-1 1.2840-1 1.2769-1 1.2698-1
 H, KJ/KG        408596.2 409729.7 410859.6 411986.1 400657.2 401846.3 403029.5 404207.1
 U, KJ/KG        328395.3 329101.6 329804.8 330505.1 323208.9 323963.4 324712.6 325456.9
 G, KJ/KG       -1055394.-1062866.-1070344.-1077827.-993381.0-1000721.-1008068.-1015420.
 S, KJ/(KG)(K)   149.3867 149.5021 149.6165 149.7300 146.7409 146.8657 146.9893 147.1116

 M, (1/n)           1.016    1.016    1.016    1.015    1.020    1.020    1.019    1.019
 (dLV/dLP)t      -1.00778 -1.00757 -1.00736 -1.00716 -1.01143 -1.01110 -1.01079 -1.01048
 (dLV/dLT)p        1.0445   1.0431   1.0417   1.0404   1.0674   1.0651   1.0630   1.0609
 Cp, KJ/(KG)(K)   22.7080  22.6337  22.5629  22.4956  23.8448  23.7228  23.6065  23.4957
 GAMMAs            1.6272   1.6285   1.6298   1.6310   1.6079   1.6100   1.6121   1.6140
 SON VEL,M/SEC    11423.6  11458.8  11493.6  11528.1  11159.4  11198.0  11236.1  11273.9

 TRANSPORT PROPERTIES (GASES ONLY)
   CONDUCTIVITY IN UNITS OF MILLIWATTS/(CM)(K)

 VISC,MILLIPOISE   1.0283   1.0330   1.0377   1.0424   1.0049   1.0094   1.0139   1.0184

  WITH EQUILIBRIUM REACTIONS

 Cp, KJ/(KG)(K)   22.7080  22.6337  22.5629  22.4956  23.8448  23.7228  23.6065  23.4957
 CONDUCTIVITY     35.4351  35.4605  35.4912  35.5269  36.6004  36.5497  36.5076  36.4737
 PRANDTL NUMBER    0.6589   0.6593   0.6597   0.6600   0.6547   0.6551   0.6556   0.6561

  WITH FROZEN REACTIONS

 Cp, KJ/(KG)(K)   20.6216  20.6236  20.6257  20.6281  20.6079  20.6089  20.6099  20.6112
 CONDUCTIVITY     31.5645  31.7145  31.8649  32.0155  30.7430  30.8893  31.0360  31.1831
 PRANDTL NUMBER    0.6718   0.6717   0.6717   0.6716   0.6736   0.6734   0.6733   0.6732

 MASS FRACTIONS

 *H               0.98418  0.98462  0.98505  0.98546  0.97659  0.97728  0.97794  0.97857
 *H2              0.01582  0.01538  0.01495  0.01454  0.02341  0.02272  0.02206  0.02143

  * THERMODYNAMIC PROPERTIES FITTED TO 20000.K

 NOTE. WEIGHT FRACTION OF FUEL IN TOTAL FUELS AND OF OXIDANT IN TOTAL OXIDANTS









               THERMODYNAMIC EQUILIBRIUM PROPERTIES AT ASSIGNED

                           TEMPERATURE AND PRESSURE

 CASE =                

             REACTANT                    WT FRACTION      ENERGY      TEMP
                                          (SEE NOTE)     KJ/KG-MOL      K  
 FUEL        H2                           1.0000000         0.000      0.000
 OXIDANT     H2                           1.0000000         0.000      0.000

 O/F=    1.00000  %FUEL= 50.000000  R,EQ.RATIO= 0.000000  PHI,EQ.RATIO=-1.000000

 THERMODYNAMIC PROPERTIES

 P, BAR            100.00   100.00   100.00   100.00   100.00   100.00   125.00   125.00
 T, K             9700.00  9750.00  9800.00  9850.00  9900.00  9950.00  9500.00  9550.00
 RHO, KG/CU M    1.2629-1 1.2561-1 1.2493-1 1.2426-1 1.2360-1 1.2295-1 1.6186-1 1.6094-1
 H, KJ/KG        405379.2 406546.2 407708.2 408865.6 410018.5 411167.1 399363.9 400589.1
 U, KJ/KG        326196.5 326931.6 327662.5 328389.2 329112.1 329831.3 322135.1 322920.5
 G, KJ/KG       -1022779.-1030143.-1037514.-1044890.-1052273.-1059661.-976122.6-983365.2
 S, KJ/(KG)(K)   147.2328 147.3528 147.4716 147.5894 147.7062 147.8219 144.7880 144.9167

 M, (1/n)           1.019    1.018    1.018    1.018    1.017    1.017    1.023    1.022
 (dLV/dLP)t      -1.01019 -1.00991 -1.00964 -1.00937 -1.00912 -1.00887 -1.01409 -1.01369
 (dLV/dLT)p        1.0589   1.0570   1.0551   1.0534   1.0517   1.0501   1.0830   1.0803
 Cp, KJ/(KG)(K)   23.3901  23.2895  23.1935  23.1020  23.0148  22.9317  24.5782  24.4299
 GAMMAs            1.6158   1.6176   1.6193   1.6209   1.6224   1.6239   1.5971   1.5995
 SON VEL,M/SEC    11311.3  11348.3  11384.9  11421.1  11457.0  11492.6  11105.9  11145.9

 TRANSPORT PROPERTIES (GASES ONLY)
   CONDUCTIVITY IN UNITS OF MILLIWATTS/(CM)(K)

 VISC,MILLIPOISE   1.0230   1.0276   1.0321   1.0368   1.0414   1.0460   1.0103   1.0147

  WITH EQUILIBRIUM REACTIONS

 Cp, KJ/(KG)(K)   23.3901  23.2895  23.1935  23.1020  23.0148  22.9317  24.5782  24.4299
 CONDUCTIVITY     36.4477  36.4291  36.4177  36.4130  36.4148  36.4228  38.0497  37.9537
 PRANDTL NUMBER    0.6565   0.6569   0.6573   0.6578   0.6582   0.6586   0.6526   0.6531

  WITH FROZEN REACTIONS

 Cp, KJ/(KG)(K)   20.6126  20.6142  20.6160  20.6179  20.6200  20.6224  20.6013  20.6022
 CONDUCTIVITY     31.3305  31.4783  31.6265  31.7749  31.9237  32.0728  30.8327  30.9766
 PRANDTL NUMBER    0.6730   0.6729   0.6728   0.6727   0.6726   0.6726   0.6751   0.6749

 MASS FRACTIONS

 *H               0.97918  0.97977  0.98034  0.98089  0.98142  0.98192  0.97099  0.97183
 *H2              0.02082  0.02023  0.01966  0.01911  0.01858  0.01808  0.02901  0.02817

  * THERMODYNAMIC PROPERTIES FITTED TO 20000.K

 NOTE. WEIGHT FRACTION OF FUEL IN TOTAL FUELS AND OF OXIDANT IN TOTAL OXIDANTS









               THERMODYNAMIC EQUILIBRIUM PROPERTIES AT ASSIGNED

                           TEMPERATURE AND PRESSURE

 CASE =                

             REACTANT                    WT FRACTION      ENERGY      TEMP
                                          (SEE NOTE)     KJ/KG-MOL      K  
 FUEL        H2                           1.0000000         0.000      0.000
 OXIDANT     H2                           1.0000000         0.000      0.000

 O/F=    1.00000  %FUEL= 50.000000  R,EQ.RATIO= 0.000000  PHI,EQ.RATIO=-1.000000

 THERMODYNAMIC PROPERTIES

 P, BAR            125.00   125.00   125.00   125.00   125.00   125.00   125.00   125.00
 T, K             9600.00  9650.00  9700.00  9750.00  9800.00  9850.00  9900.00  9950.00
 RHO, KG/CU M    1.6004-1 1.5914-1 1.5826-1 1.5739-1 1.5654-1 1.5569-1 1.5485-1 1.5402-1
 H, KJ/KG        401807.0 403018.0 404222.4 405420.6 406612.7 407799.1 408980.1 410155.8
 U, KJ/KG        323699.6 324472.7 325240.0 326001.8 326758.4 327510.0 328256.8 328999.2
 G, KJ/KG       -990614.2-997869.5-1005131.-1012399.-1019673.-1026953.-1034239.-1041531.
 S, KJ/(KG)(K)   145.0439 145.1697 145.2942 145.4174 145.5393 145.6601 145.7797 145.8981

 M, (1/n)           1.022    1.022    1.021    1.021    1.020    1.020    1.020    1.019
 (dLV/dLP)t      -1.01330 -1.01293 -1.01258 -1.01223 -1.01190 -1.01158 -1.01127 -1.01097
 (dLV/dLT)p        1.0776   1.0751   1.0727   1.0703   1.0681   1.0659   1.0639   1.0619
 Cp, KJ/(KG)(K)   24.2884  24.1535  24.0247  23.9018  23.7845  23.6725  23.5657  23.4637
 GAMMAs            1.6018   1.6040   1.6062   1.6082   1.6102   1.6120   1.6138   1.6155
 SON VEL,M/SEC    11185.4  11224.5  11263.1  11301.4  11339.2  11376.7  11413.7  11450.4

 TRANSPORT PROPERTIES (GASES ONLY)
   CONDUCTIVITY IN UNITS OF MILLIWATTS/(CM)(K)

 VISC,MILLIPOISE   1.0191   1.0235   1.0280   1.0324   1.0369   1.0414   1.0459   1.0505

  WITH EQUILIBRIUM REACTIONS

 Cp, KJ/(KG)(K)   24.2884  24.1535  24.0247  23.9018  23.7845  23.6725  23.5657  23.4637
 CONDUCTIVITY     37.8681  37.7923  37.7260  37.6686  37.6197  37.5790  37.5461  37.5207
 PRANDTL NUMBER    0.6537   0.6542   0.6546   0.6551   0.6556   0.6560   0.6565   0.6569

  WITH FROZEN REACTIONS

 Cp, KJ/(KG)(K)   20.6032  20.6044  20.6057  20.6073  20.6090  20.6109  20.6130  20.6153
 CONDUCTIVITY     31.1210  31.2659  31.4112  31.5569  31.7030  31.8495  31.9963  32.1436
 PRANDTL NUMBER    0.6747   0.6745   0.6744   0.6742   0.6741   0.6739   0.6738   0.6737

 MASS FRACTIONS

 *H               0.97264  0.97343  0.97418  0.97491  0.97561  0.97628  0.97693  0.97756
 *H2              0.02736  0.02657  0.02582  0.02509  0.02439  0.02372  0.02307  0.02244

  * THERMODYNAMIC PROPERTIES FITTED TO 20000.K

 NOTE. WEIGHT FRACTION OF FUEL IN TOTAL FUELS AND OF OXIDANT IN TOTAL OXIDANTS









               THERMODYNAMIC EQUILIBRIUM PROPERTIES AT ASSIGNED

                           TEMPERATURE AND PRESSURE

 CASE =                

             REACTANT                    WT FRACTION      ENERGY      TEMP
                                          (SEE NOTE)     KJ/KG-MOL      K  
 FUEL        H2                           1.0000000         0.000      0.000
 OXIDANT     H2                           1.0000000         0.000      0.000

 O/F=    1.00000  %FUEL= 50.000000  R,EQ.RATIO= 0.000000  PHI,EQ.RATIO=-1.000000

 THERMODYNAMIC PROPERTIES

 P, BAR            150.00   150.00   150.00   150.00   150.00   150.00   150.00   150.00
 T, K             9500.00  9550.00  9600.00  9650.00  9700.00  9750.00  9800.00  9850.00
 RHO, KG/CU M    1.9477-1 1.9365-1 1.9255-1 1.9146-1 1.9039-1 1.8933-1 1.8829-1 1.8726-1
 H, KJ/KG        398092.6 399352.6 400604.1 401847.5 403083.3 404311.6 405532.9 406747.6
 U, KJ/KG        321079.5 321894.9 322702.9 323503.8 324297.9 325085.7 325867.3 326643.1
 G, KJ/KG       -962061.2-969223.2-976391.8-983566.9-990748.4-997936.3-1005130.-1012331.
 S, KJ/(KG)(K)   143.1741 143.3064 143.4371 143.5663 143.6940 143.8203 143.9452 144.0689

 M, (1/n)           1.026    1.025    1.025    1.024    1.024    1.023    1.023    1.022
 (dLV/dLP)t      -1.01666 -1.01620 -1.01575 -1.01532 -1.01490 -1.01450 -1.01411 -1.01373
 (dLV/dLT)p        1.0982   1.0950   1.0919   1.0889   1.0861   1.0834   1.0807   1.0782
 Cp, KJ/(KG)(K)   25.2864  25.1134  24.9482  24.7904  24.6397  24.4958  24.3583  24.2269
 GAMMAs            1.5873   1.5899   1.5925   1.5949   1.5973   1.5996   1.6018   1.6039
 SON VEL,M/SEC    11056.2  11097.4  11138.0  11178.2  11218.0  11257.4  11296.3  11334.8

 TRANSPORT PROPERTIES (GASES ONLY)
   CONDUCTIVITY IN UNITS OF MILLIWATTS/(CM)(K)

 VISC,MILLIPOISE   1.0157   1.0200   1.0242   1.0285   1.0329   1.0372   1.0416   1.0460

  WITH EQUILIBRIUM REACTIONS

 Cp, KJ/(KG)(K)   25.2864  25.1134  24.9482  24.7904  24.6397  24.4958  24.3583  24.2269
 CONDUCTIVITY     39.4587  39.3199  39.1929  39.0773  38.9726  38.8781  38.7936  38.7185
 PRANDTL NUMBER    0.6509   0.6514   0.6520   0.6525   0.6530   0.6535   0.6540   0.6545

  WITH FROZEN REACTIONS

 Cp, KJ/(KG)(K)   20.5948  20.5956  20.5965  20.5977  20.5990  20.6005  20.6022  20.6040
 CONDUCTIVITY     30.9209  31.0625  31.2047  31.3473  31.4905  31.6342  31.7783  31.9229
 PRANDTL NUMBER    0.6765   0.6763   0.6760   0.6758   0.6756   0.6755   0.6753   0.6751

 MASS FRACTIONS

 *H               0.96548  0.96648  0.96744  0.96836  0.96925  0.97011  0.97094  0.97174
 *H2              0.03452  0.03352  0.03256  0.03164  0.03075  0.02989  0.02906  0.02826

  * THERMODYNAMIC PROPERTIES FITTED TO 20000.K

 NOTE. WEIGHT FRACTION OF FUEL IN TOTAL FUELS AND OF OXIDANT IN TOTAL OXIDANTS









               THERMODYNAMIC EQUILIBRIUM PROPERTIES AT ASSIGNED

                           TEMPERATURE AND PRESSURE

 CASE =                

             REACTANT                    WT FRACTION      ENERGY      TEMP
                                          (SEE NOTE)     KJ/KG-MOL      K  
 FUEL        H2                           1.0000000         0.000      0.000
 OXIDANT     H2                           1.0000000         0.000      0.000

 O/F=    1.00000  %FUEL= 50.000000  R,EQ.RATIO= 0.000000  PHI,EQ.RATIO=-1.000000

 THERMODYNAMIC PROPERTIES

 P, BAR            150.00   150.00   200.00   200.00   200.00   200.00   200.00   200.00
 T, K             9900.00  9950.00  9500.00  9550.00  9600.00  9650.00  9700.00  9750.00
 RHO, KG/CU M    1.8624-1 1.8523-1 2.6112-1 2.5958-1 2.5807-1 2.5658-1 2.5510-1 2.5365-1
 H, KJ/KG        407955.7 409157.8 395613.7 396939.7 398255.1 399560.4 400855.8 402141.9
 U, KJ/KG        327413.2 328178.1 319021.2 319893.5 320756.5 321610.5 322456.0 323293.3
 G, KJ/KG       -1019537.-1026750.-939963.9-946996.7-954036.5-961083.0-968136.4-975196.3
 S, KJ/(KG)(K)   144.1912 144.3123 140.5871 140.7263 140.8637 140.9993 141.1332 141.2655

 M, (1/n)           1.022    1.022    1.031    1.031    1.030    1.029    1.029    1.028
 (dLV/dLP)t      -1.01337 -1.01302 -1.02160 -1.02102 -1.02045 -1.01990 -1.01938 -1.01886
 (dLV/dLT)p        1.0758   1.0735   1.1273   1.1232   1.1193   1.1156   1.1120   1.1085
 Cp, KJ/(KG)(K)   24.1013  23.9814  26.6311  26.4132  26.2048  26.0053  25.8143  25.6316
 GAMMAs            1.6059   1.6078   1.5702   1.5732   1.5761   1.5789   1.5817   1.5843
 SON VEL,M/SEC    11372.9  11410.6  10966.5  11009.5  11052.0  11094.0  11135.6  11176.8

 TRANSPORT PROPERTIES (GASES ONLY)
   CONDUCTIVITY IN UNITS OF MILLIWATTS/(CM)(K)

 VISC,MILLIPOISE   1.0504   1.0549   1.0261   1.0301   1.0342   1.0383   1.0424   1.0466

  WITH EQUILIBRIUM REACTIONS

 Cp, KJ/(KG)(K)   24.1013  23.9814  26.6311  26.4132  26.2048  26.0053  25.8143  25.6316
 CONDUCTIVITY     38.6523  38.5948  42.1614  41.9436  41.7403  41.5509  41.3747  41.2114
 PRANDTL NUMBER    0.6550   0.6555   0.6481   0.6487   0.6493   0.6498   0.6504   0.6509

  WITH FROZEN REACTIONS

 Cp, KJ/(KG)(K)   20.6061  20.6083  20.5820  20.5827  20.5835  20.5845  20.5857  20.5871
 CONDUCTIVITY     32.0679  32.2134  31.0928  31.2300  31.3679  31.5065  31.6456  31.7854
 PRANDTL NUMBER    0.6750   0.6749   0.6792   0.6789   0.6786   0.6783   0.6781   0.6778

 MASS FRACTIONS

 *H               0.97250  0.97325  0.95475  0.95603  0.95727  0.95847  0.95962  0.96073
 *H2              0.02750  0.02675  0.04525  0.04397  0.04273  0.04153  0.04038  0.03927

  * THERMODYNAMIC PROPERTIES FITTED TO 20000.K

 NOTE. WEIGHT FRACTION OF FUEL IN TOTAL FUELS AND OF OXIDANT IN TOTAL OXIDANTS









               THERMODYNAMIC EQUILIBRIUM PROPERTIES AT ASSIGNED

                           TEMPERATURE AND PRESSURE

 CASE =                

             REACTANT                    WT FRACTION      ENERGY      TEMP
                                          (SEE NOTE)     KJ/KG-MOL      K  
 FUEL        H2                           1.0000000         0.000      0.000
 OXIDANT     H2                           1.0000000         0.000      0.000

 O/F=    1.00000  %FUEL= 50.000000  R,EQ.RATIO= 0.000000  PHI,EQ.RATIO=-1.000000

 THERMODYNAMIC PROPERTIES

 P, BAR            200.00   200.00   200.00   200.00   250.00   250.00   250.00   250.00
 T, K             9800.00  9850.00  9900.00  9950.00  9500.00  9550.00  9600.00  9650.00
 RHO, KG/CU M    2.5222-1 2.5081-1 2.4941-1 2.4804-1 3.2815-1 3.2617-1 3.2422-1 3.2230-1
 H, KJ/KG        403419.1 404687.7 405948.2 407200.8 393215.6 394603.5 395978.7 397341.9
 U, KJ/KG        324122.8 324944.9 325759.8 326567.9 317030.0 317955.6 318870.2 319774.1
 G, KJ/KG       -982262.9-989335.9-996415.4-1003501.-922916.7-929847.4-936785.3-943730.3
 S, KJ/(KG)(K)   141.3961 141.5252 141.6529 141.7791 138.5402 138.6859 138.8296 138.9712

 M, (1/n)           1.028    1.027    1.027    1.026    1.037    1.036    1.035    1.034
 (dLV/dLP)t      -1.01837 -1.01789 -1.01743 -1.01698 -1.02627 -1.02558 -1.02491 -1.02426
 (dLV/dLT)p        1.1051   1.1019   1.0988   1.0958   1.1548   1.1500   1.1453   1.1409
 Cp, KJ/(KG)(K)   25.4568  25.2894  25.1292  24.9759  27.8870  27.6295  27.3827  27.1462
 GAMMAs            1.5869   1.5893   1.5917   1.5940   1.5558   1.5590   1.5622   1.5653
 SON VEL,M/SEC    11217.5  11257.8  11297.6  11337.0  10887.1  10931.5  10975.4  11018.9

 TRANSPORT PROPERTIES (GASES ONLY)
   CONDUCTIVITY IN UNITS OF MILLIWATTS/(CM)(K)

 VISC,MILLIPOISE   1.0507   1.0550   1.0592   1.0635   1.0360   1.0399   1.0437   1.0476

  WITH EQUILIBRIUM REACTIONS

 Cp, KJ/(KG)(K)   25.4568  25.2894  25.1292  24.9759  27.8870  27.6295  27.3827  27.1462
 CONDUCTIVITY     41.0602  40.9207  40.7924  40.6747  44.7197  44.4309  44.1588  43.9027
 PRANDTL NUMBER    0.6514   0.6520   0.6525   0.6530   0.6461   0.6466   0.6472   0.6478

  WITH FROZEN REACTIONS

 Cp, KJ/(KG)(K)   20.5887  20.5905  20.5925  20.5947  20.5697  20.5702  20.5709  20.5718
 CONDUCTIVITY     31.9258  32.0667  32.2082  32.3502  31.2590  31.3921  31.5260  31.6607
 PRANDTL NUMBER    0.6776   0.6774   0.6772   0.6770   0.6817   0.6814   0.6810   0.6807

 MASS FRACTIONS

 *H               0.96180  0.96283  0.96383  0.96479  0.94436  0.94592  0.94742  0.94887
 *H2              0.03820  0.03717  0.03617  0.03521  0.05564  0.05408  0.05258  0.05113

  * THERMODYNAMIC PROPERTIES FITTED TO 20000.K

 NOTE. WEIGHT FRACTION OF FUEL IN TOTAL FUELS AND OF OXIDANT IN TOTAL OXIDANTS









               THERMODYNAMIC EQUILIBRIUM PROPERTIES AT ASSIGNED

                           TEMPERATURE AND PRESSURE

 CASE =                

             REACTANT                    WT FRACTION      ENERGY      TEMP
                                          (SEE NOTE)     KJ/KG-MOL      K  
 FUEL        H2                           1.0000000         0.000      0.000
 OXIDANT     H2                           1.0000000         0.000      0.000

 O/F=    1.00000  %FUEL= 50.000000  R,EQ.RATIO= 0.000000  PHI,EQ.RATIO=-1.000000

 THERMODYNAMIC PROPERTIES

 P, BAR            250.00   250.00   250.00   250.00   250.00   250.00   300.00   300.00
 T, K             9700.00  9750.00  9800.00  9850.00  9900.00  9950.00  9500.00  9550.00
 RHO, KG/CU M    3.2041-1 3.1854-1 3.1671-1 3.1490-1 3.1311-1 3.1135-1 3.9582-1 3.9338-1
 H, KJ/KG        398693.5 400034.0 401363.8 402683.5 403993.4 405293.9 390894.1 392339.8
 U, KJ/KG        320667.9 321552.0 322426.7 323292.6 324149.9 324999.0 315102.5 316078.0
 G, KJ/KG       -950682.3-957641.3-964607.2-971579.8-978559.1-985544.9-909061.4-915907.1
 S, KJ/(KG)(K)   139.1109 139.2488 139.3848 139.5191 139.6518 139.7828 136.8374 136.9892

 M, (1/n)           1.034    1.033    1.032    1.032    1.031    1.030    1.042    1.041
 (dLV/dLP)t      -1.02363 -1.02302 -1.02243 -1.02186 -1.02131 -1.02078 -1.03069 -1.02990
 (dLV/dLT)p        1.1365   1.1324   1.1284   1.1245   1.1208   1.1172   1.1809   1.1753
 Cp, KJ/(KG)(K)   26.9194  26.7020  26.4937  26.2939  26.1024  25.9188  29.0611  28.7687
 GAMMAs            1.5683   1.5712   1.5740   1.5767   1.5793   1.5819   1.5435   1.5469
 SON VEL,M/SEC    11061.9  11104.5  11146.6  11188.2  11229.5  11270.3  10815.9  10861.4

 TRANSPORT PROPERTIES (GASES ONLY)
   CONDUCTIVITY IN UNITS OF MILLIWATTS/(CM)(K)

 VISC,MILLIPOISE   1.0516   1.0555   1.0595   1.0636   1.0677   1.0718   1.0456   1.0492

  WITH EQUILIBRIUM REACTIONS

 Cp, KJ/(KG)(K)   26.9194  26.7020  26.4937  26.2939  26.1024  25.9188  29.0611  28.7687
 CONDUCTIVITY     43.6620  43.4360  43.2241  43.0258  42.8404  42.6676  47.1435  46.7910
 PRANDTL NUMBER    0.6483   0.6489   0.6494   0.6500   0.6505   0.6510   0.6445   0.6451

  WITH FROZEN REACTIONS

 Cp, KJ/(KG)(K)   20.5729  20.5742  20.5757  20.5774  20.5793  20.5814  20.5578  20.5582
 CONDUCTIVITY     31.7961  31.9323  32.0691  32.2066  32.3447  32.4835  31.4197  31.5490
 PRANDTL NUMBER    0.6804   0.6801   0.6798   0.6795   0.6793   0.6791   0.6841   0.6837

 MASS FRACTIONS

 *H               0.95026  0.95161  0.95291  0.95417  0.95539  0.95656  0.93431  0.93612
 *H2              0.04974  0.04839  0.04709  0.04583  0.04461  0.04344  0.06569  0.06388

  * THERMODYNAMIC PROPERTIES FITTED TO 20000.K

 NOTE. WEIGHT FRACTION OF FUEL IN TOTAL FUELS AND OF OXIDANT IN TOTAL OXIDANTS









               THERMODYNAMIC EQUILIBRIUM PROPERTIES AT ASSIGNED

                           TEMPERATURE AND PRESSURE

 CASE =                

             REACTANT                    WT FRACTION      ENERGY      TEMP
                                          (SEE NOTE)     KJ/KG-MOL      K  
 FUEL        H2                           1.0000000         0.000      0.000
 OXIDANT     H2                           1.0000000         0.000      0.000

 O/F=    1.00000  %FUEL= 50.000000  R,EQ.RATIO= 0.000000  PHI,EQ.RATIO=-1.000000

 THERMODYNAMIC PROPERTIES

 P, BAR            300.00   300.00   300.00   300.00   300.00   300.00   300.00   300.00
 T, K             9600.00  9650.00  9700.00  9750.00  9800.00  9850.00  9900.00  9950.00
 RHO, KG/CU M    3.9098-1 3.8862-1 3.8629-1 3.8400-1 3.8174-1 3.7951-1 3.7732-1 3.7516-1
 H, KJ/KG        393771.2 395188.8 396593.2 397984.9 399364.5 400732.4 402089.1 403435.0
 U, KJ/KG        317040.9 317991.8 318931.1 319859.2 320776.7 321684.0 322581.5 323469.6
 G, KJ/KG       -922760.3-929621.0-936488.9-943364.0-950246.3-957135.5-964031.7-970934.7
 S, KJ/(KG)(K)   137.1387 137.2860 137.4311 137.5743 137.7154 137.8546 137.9920 138.1276

 M, (1/n)           1.040    1.039    1.038    1.038    1.037    1.036    1.035    1.035
 (dLV/dLP)t      -1.02914 -1.02840 -1.02768 -1.02699 -1.02631 -1.02566 -1.02502 -1.02441
 (dLV/dLT)p        1.1700   1.1649   1.1599   1.1552   1.1506   1.1461   1.1419   1.1377
 Cp, KJ/(KG)(K)   28.4880  28.2186  27.9599  27.7115  27.4731  27.2442  27.0244  26.8134
 GAMMAs            1.5502   1.5535   1.5567   1.5597   1.5627   1.5657   1.5685   1.5712
 SON VEL,M/SEC    10906.4  10951.0  10995.2  11038.9  11082.1  11124.9  11167.2  11209.2

 TRANSPORT PROPERTIES (GASES ONLY)
   CONDUCTIVITY IN UNITS OF MILLIWATTS/(CM)(K)

 VISC,MILLIPOISE   1.0529   1.0566   1.0604   1.0642   1.0680   1.0719   1.0758   1.0798

  WITH EQUILIBRIUM REACTIONS

 Cp, KJ/(KG)(K)   28.4880  28.2186  27.9599  27.7115  27.4731  27.2442  27.0244  26.8134
 CONDUCTIVITY     46.4570  46.1407  45.8414  45.5585  45.2913  45.0392  44.8017  44.5782
 PRANDTL NUMBER    0.6457   0.6462   0.6468   0.6473   0.6479   0.6484   0.6489   0.6495

  WITH FROZEN REACTIONS

 Cp, KJ/(KG)(K)   20.5587  20.5595  20.5604  20.5616  20.5630  20.5646  20.5664  20.5684
 CONDUCTIVITY     31.6792  31.8103  31.9422  32.0749  32.2084  32.3426  32.4776  32.6133
 PRANDTL NUMBER    0.6833   0.6829   0.6826   0.6822   0.6819   0.6816   0.6813   0.6810

 MASS FRACTIONS

 *H               0.93786  0.93955  0.94118  0.94275  0.94427  0.94574  0.94716  0.94853
 *H2              0.06214  0.06045  0.05882  0.05725  0.05573  0.05426  0.05284  0.05147

  * THERMODYNAMIC PROPERTIES FITTED TO 20000.K

 NOTE. WEIGHT FRACTION OF FUEL IN TOTAL FUELS AND OF OXIDANT IN TOTAL OXIDANTS









               THERMODYNAMIC EQUILIBRIUM PROPERTIES AT ASSIGNED

                           TEMPERATURE AND PRESSURE

 CASE =                

             REACTANT                    WT FRACTION      ENERGY      TEMP
                                          (SEE NOTE)     KJ/KG-MOL      K  
 FUEL        H2                           1.0000000         0.000      0.000
 OXIDANT     H2                           1.0000000         0.000      0.000

 O/F=    1.00000  %FUEL= 50.000000  R,EQ.RATIO= 0.000000  PHI,EQ.RATIO=-1.000000

 THERMODYNAMIC PROPERTIES

 P, BAR            400.00   400.00   400.00   400.00   400.00   400.00   400.00   400.00
 T, K             9500.00  9550.00  9600.00  9650.00  9700.00  9750.00  9800.00  9850.00
 RHO, KG/CU M    5.3305-1 5.2963-1 5.2627-1 5.2296-1 5.1971-1 5.1652-1 5.1337-1 5.1027-1
 H, KJ/KG        386465.2 388015.8 389549.3 391066.2 392567.2 394052.9 395523.8 396980.5
 U, KJ/KG        311425.1 312491.4 313542.6 314579.2 315601.9 316611.0 317607.2 318590.9
 G, KJ/KG       -887361.6-894070.0-900786.5-907511.0-914243.2-920983.2-927730.8-934485.8
 S, KJ/(KG)(K)   134.0870 134.2498 134.4100 134.5676 134.7227 134.8755 135.0260 135.1742

 M, (1/n)           1.053    1.051    1.050    1.049    1.048    1.047    1.046    1.045
 (dLV/dLP)t      -1.03883 -1.03789 -1.03697 -1.03608 -1.03521 -1.03437 -1.03355 -1.03275
 (dLV/dLT)p        1.2289   1.2222   1.2157   1.2095   1.2035   1.1976   1.1920   1.1866
 Cp, KJ/(KG)(K)   31.1888  30.8388  30.5018  30.1773  29.8648  29.5640  29.2745  28.9958
 GAMMAs            1.5235   1.5271   1.5306   1.5341   1.5375   1.5408   1.5440   1.5472
 SON VEL,M/SEC    10692.2  10739.3  10786.0  10832.3  10878.1  10923.4  10968.4  11012.9

 TRANSPORT PROPERTIES (GASES ONLY)
   CONDUCTIVITY IN UNITS OF MILLIWATTS/(CM)(K)

 VISC,MILLIPOISE   1.0635   1.0669   1.0702   1.0737   1.0771   1.0806   1.0842   1.0878

  WITH EQUILIBRIUM REACTIONS

 Cp, KJ/(KG)(K)   31.1888  30.8388  30.5018  30.1773  29.8648  29.5640  29.2745  28.9958
 CONDUCTIVITY     51.6234  51.1627  50.7229  50.3031  49.9028  49.5213  49.1578  48.8119
 PRANDTL NUMBER    0.6425   0.6431   0.6436   0.6441   0.6446   0.6451   0.6457   0.6462

  WITH FROZEN REACTIONS

 Cp, KJ/(KG)(K)   20.5351  20.5351  20.5353  20.5358  20.5365  20.5374  20.5386  20.5400
 CONDUCTIVITY     31.7259  31.8483  31.9717  32.0962  32.2217  32.3482  32.4756  32.6038
 PRANDTL NUMBER    0.6884   0.6879   0.6874   0.6869   0.6865   0.6861   0.6857   0.6853

 MASS FRACTIONS

 *H               0.91513  0.91740  0.91959  0.92171  0.92376  0.92575  0.92767  0.92953
 *H2              0.08487  0.08260  0.08041  0.07829  0.07624  0.07425  0.07233  0.07047

  * THERMODYNAMIC PROPERTIES FITTED TO 20000.K

 NOTE. WEIGHT FRACTION OF FUEL IN TOTAL FUELS AND OF OXIDANT IN TOTAL OXIDANTS









               THERMODYNAMIC EQUILIBRIUM PROPERTIES AT ASSIGNED

                           TEMPERATURE AND PRESSURE

 CASE =                

             REACTANT                    WT FRACTION      ENERGY      TEMP
                                          (SEE NOTE)     KJ/KG-MOL      K  
 FUEL        H2                           1.0000000         0.000      0.000
 OXIDANT     H2                           1.0000000         0.000      0.000

 O/F=    1.00000  %FUEL= 50.000000  R,EQ.RATIO= 0.000000  PHI,EQ.RATIO=-1.000000

 THERMODYNAMIC PROPERTIES

 P, BAR            400.00   400.00   500.00   500.00   500.00   500.00   500.00   500.00
 T, K             9900.00  9950.00  9500.00  9550.00  9600.00  9650.00  9700.00  9750.00
 RHO, KG/CU M    5.0722-1 5.0422-1 6.7265-1 6.6818-1 6.6380-1 6.5949-1 6.5526-1 6.5109-1
 H, KJ/KG        398423.6 399853.5 382298.3 383941.3 385565.0 387169.9 388756.8 390326.2
 U, KJ/KG        319562.6 320522.8 307965.2 309111.7 310241.1 311354.0 312450.9 313532.4
 G, KJ/KG       -941248.1-948017.8-870693.6-877292.6-883900.2-890516.2-897140.4-903772.8
 S, KJ/(KG)(K)   135.3204 135.4644 131.8939 132.0664 132.2360 132.4027 132.5667 132.7281

 M, (1/n)           1.044    1.043    1.063    1.061    1.060    1.058    1.057    1.056
 (dLV/dLP)t      -1.03198 -1.03123 -1.04616 -1.04510 -1.04406 -1.04305 -1.04206 -1.04110
 (dLV/dLT)p        1.1813   1.1762   1.2720   1.2645   1.2571   1.2500   1.2430   1.2363
 Cp, KJ/(KG)(K)   28.7276  28.4694  33.0585  32.6642  32.2835  31.9159  31.5611  31.2187
 GAMMAs            1.5503   1.5533   1.5079   1.5116   1.5152   1.5187   1.5222   1.5256
 SON VEL,M/SEC    11057.0  11100.6  10587.1  10635.3  10683.1  10730.5  10777.5  10824.1

 TRANSPORT PROPERTIES (GASES ONLY)
   CONDUCTIVITY IN UNITS OF MILLIWATTS/(CM)(K)

 VISC,MILLIPOISE   1.0914   1.0951   1.0801   1.0832   1.0863   1.0895   1.0927   1.0960

  WITH EQUILIBRIUM REACTIONS

 Cp, KJ/(KG)(K)   28.7276  28.4694  33.0585  32.6642  32.2835  31.9159  31.5611  31.2187
 CONDUCTIVITY     48.4828  48.1700  55.6655  55.1181  54.5928  54.0890  53.6060  53.1432
 PRANDTL NUMBER    0.6467   0.6472   0.6415   0.6419   0.6424   0.6429   0.6433   0.6438

  WITH FROZEN REACTIONS

 Cp, KJ/(KG)(K)   20.5416  20.5434  20.5137  20.5134  20.5133  20.5135  20.5139  20.5145
 CONDUCTIVITY     32.7330  32.8630  32.0132  32.1296  32.2472  32.3659  32.4857  32.6066
 PRANDTL NUMBER    0.6849   0.6846   0.6921   0.6916   0.6910   0.6905   0.6900   0.6895

 MASS FRACTIONS

 *H               0.93132  0.93306  0.89708  0.89976  0.90235  0.90485  0.90728  0.90963
 *H2              0.06868  0.06694  0.10292  0.10024  0.09765  0.09515  0.09272  0.09037

  * THERMODYNAMIC PROPERTIES FITTED TO 20000.K

 NOTE. WEIGHT FRACTION OF FUEL IN TOTAL FUELS AND OF OXIDANT IN TOTAL OXIDANTS









               THERMODYNAMIC EQUILIBRIUM PROPERTIES AT ASSIGNED

                           TEMPERATURE AND PRESSURE

 CASE =                

             REACTANT                    WT FRACTION      ENERGY      TEMP
                                          (SEE NOTE)     KJ/KG-MOL      K  
 FUEL        H2                           1.0000000         0.000      0.000
 OXIDANT     H2                           1.0000000         0.000      0.000

 O/F=    1.00000  %FUEL= 50.000000  R,EQ.RATIO= 0.000000  PHI,EQ.RATIO=-1.000000

 THERMODYNAMIC PROPERTIES

 P, BAR            500.00   500.00   500.00   500.00   625.00   625.00   625.00   625.00
 T, K             9800.00  9850.00  9900.00  9950.00  9500.00  9550.00  9600.00  9650.00
 RHO, KG/CU M    6.4700-1 6.4297-1 6.3901-1 6.3511-1 8.5028-1 8.4442-1 8.3868-1 8.3304-1
 H, KJ/KG        391878.8 393415.2 394936.0 396441.6 377420.6 379164.1 380886.1 382587.5
 U, KJ/KG        314599.1 315651.6 316690.3 317715.7 303915.2 305149.2 306364.1 307560.7
 G, KJ/KG       -910413.2-917061.5-923717.5-930381.2-854196.7-860683.5-867179.3-873684.1
 S, KJ/(KG)(K)   132.8869 133.0433 133.1973 133.3490 129.6439 129.8270 130.0068 130.1836

 M, (1/n)           1.054    1.053    1.052    1.051    1.075    1.073    1.071    1.069
 (dLV/dLP)t      -1.04017 -1.03925 -1.03837 -1.03750 -1.05433 -1.05315 -1.05200 -1.05088
 (dLV/dLT)p        1.2299   1.2236   1.2175   1.2116   1.3202   1.3117   1.3034   1.2954
 Cp, KJ/(KG)(K)   30.8883  30.5694  30.2618  29.9651  35.0878  34.6529  34.2316  33.8237
 GAMMAs            1.5290   1.5323   1.5355   1.5387   1.4925   1.4962   1.4998   1.5034
 SON VEL,M/SEC    10870.2  10916.0  10961.3  11006.2  10474.2  10523.4  10572.2  10620.6

 TRANSPORT PROPERTIES (GASES ONLY)
   CONDUCTIVITY IN UNITS OF MILLIWATTS/(CM)(K)

 VISC,MILLIPOISE   1.0993   1.1026   1.1060   1.1095   1.0992   1.1020   1.1049   1.1078

  WITH EQUILIBRIUM REACTIONS

 Cp, KJ/(KG)(K)   30.8883  30.5694  30.2618  29.9651  35.0878  34.6529  34.2316  33.8237
 CONDUCTIVITY     52.7000  52.2758  51.8700  51.4820  60.1841  59.5526  58.9437  58.3570
 PRANDTL NUMBER    0.6443   0.6448   0.6453   0.6458   0.6408   0.6413   0.6417   0.6421

  WITH FROZEN REACTIONS

 Cp, KJ/(KG)(K)   20.5154  20.5166  20.5180  20.5196  20.4886  20.4879  20.4874  20.4872
 CONDUCTIVITY     32.7286  32.8516  32.9755  33.1005  32.3486  32.4585  32.5697  32.6821
 PRANDTL NUMBER    0.6891   0.6886   0.6882   0.6878   0.6962   0.6956   0.6950   0.6944

 MASS FRACTIONS

 *H               0.91191  0.91412  0.91626  0.91833  0.87596  0.87907  0.88209  0.88502
 *H2              0.08809  0.08588  0.08374  0.08167  0.12404  0.12093  0.11791  0.11498

  * THERMODYNAMIC PROPERTIES FITTED TO 20000.K

 NOTE. WEIGHT FRACTION OF FUEL IN TOTAL FUELS AND OF OXIDANT IN TOTAL OXIDANTS









               THERMODYNAMIC EQUILIBRIUM PROPERTIES AT ASSIGNED

                           TEMPERATURE AND PRESSURE

 CASE =                

             REACTANT                    WT FRACTION      ENERGY      TEMP
                                          (SEE NOTE)     KJ/KG-MOL      K  
 FUEL        H2                           1.0000000         0.000      0.000
 OXIDANT     H2                           1.0000000         0.000      0.000

 O/F=    1.00000  %FUEL= 50.000000  R,EQ.RATIO= 0.000000  PHI,EQ.RATIO=-1.000000

 THERMODYNAMIC PROPERTIES

 P, BAR            625.00   625.00   625.00   625.00   625.00   625.00   800.00   800.00
 T, K             9700.00  9750.00  9800.00  9850.00  9900.00  9950.00  9500.00  9550.00
 RHO, KG/CU M    8.2749-1 8.2205-1 8.1670-1 8.1144-1 8.0627-1 8.0119-1 1.1044 0 1.0964 0
 H, KJ/KG        384268.7 385930.5 387573.6 389198.4 390805.6 392395.8 371136.6 372997.5
 U, KJ/KG        308739.5 309901.2 311046.2 312175.1 313288.5 314386.9 298697.5 300034.2
 G, KJ/KG       -880197.6-886719.8-893250.4-899789.4-906336.5-912891.8-836179.4-842538.6
 S, KJ/(KG)(K)   130.3574 130.5282 130.6963 130.8617 131.0245 131.1847 127.0859 127.2813

 M, (1/n)           1.068    1.066    1.065    1.063    1.062    1.061    1.090    1.088
 (dLV/dLP)t      -1.04978 -1.04871 -1.04766 -1.04663 -1.04563 -1.04466 -1.06419 -1.06292
 (dLV/dLT)p        1.2876   1.2801   1.2727   1.2656   1.2587   1.2520   1.3783   1.3689
 Cp, KJ/(KG)(K)   33.4287  33.0463  32.6763  32.3183  31.9720  31.6370  37.4553  36.9840
 GAMMAs            1.5070   1.5105   1.5139   1.5173   1.5206   1.5239   1.4761   1.4798
 SON VEL,M/SEC    10668.7  10716.3  10763.6  10810.4  10856.9  10902.9  10340.6  10390.8

 TRANSPORT PROPERTIES (GASES ONLY)
   CONDUCTIVITY IN UNITS OF MILLIWATTS/(CM)(K)

 VISC,MILLIPOISE   1.1108   1.1138   1.1168   1.1199   1.1231   1.1263   1.1232   1.1257

  WITH EQUILIBRIUM REACTIONS

 Cp, KJ/(KG)(K)   33.4287  33.0463  32.6763  32.3183  31.9720  31.6370  37.4553  36.9840
 CONDUCTIVITY     57.7918  57.2477  56.7240  56.2204  55.7362  55.2709  65.6665  64.9524
 PRANDTL NUMBER    0.6425   0.6429   0.6434   0.6438   0.6442   0.6447   0.6406   0.6410

  WITH FROZEN REACTIONS

 Cp, KJ/(KG)(K)   20.4872  20.4875  20.4881  20.4889  20.4900  20.4914  20.4564  20.4550
 CONDUCTIVITY     32.7958  32.9107  33.0267  33.1438  33.2621  33.3814  32.7785  32.8810
 PRANDTL NUMBER    0.6939   0.6933   0.6928   0.6923   0.6918   0.6914   0.7010   0.7003

 MASS FRACTIONS

 *H               0.88787  0.89062  0.89330  0.89589  0.89841  0.90085  0.84875  0.85238
 *H2              0.11213  0.10938  0.10670  0.10411  0.10159  0.09915  0.15125  0.14762

  * THERMODYNAMIC PROPERTIES FITTED TO 20000.K

 NOTE. WEIGHT FRACTION OF FUEL IN TOTAL FUELS AND OF OXIDANT IN TOTAL OXIDANTS









               THERMODYNAMIC EQUILIBRIUM PROPERTIES AT ASSIGNED

                           TEMPERATURE AND PRESSURE

 CASE =                

             REACTANT                    WT FRACTION      ENERGY      TEMP
                                          (SEE NOTE)     KJ/KG-MOL      K  
 FUEL        H2                           1.0000000         0.000      0.000
 OXIDANT     H2                           1.0000000         0.000      0.000

 O/F=    1.00000  %FUEL= 50.000000  R,EQ.RATIO= 0.000000  PHI,EQ.RATIO=-1.000000

 THERMODYNAMIC PROPERTIES

 P, BAR            800.00   800.00   800.00   800.00   800.00   800.00   800.00   800.00
 T, K             9600.00  9650.00  9700.00  9750.00  9800.00  9850.00  9900.00  9950.00
 RHO, KG/CU M    1.0887 0 1.0810 0 1.0735 0 1.0662 0 1.0589 0 1.0518 0 1.0449 0 1.0380 0
 H, KJ/KG        374835.2 376650.3 378443.4 380215.2 381966.2 383697.1 385408.5 387100.9
 U, KJ/KG        301350.2 302646.1 303922.4 305179.7 306418.7 307639.7 308843.5 310030.5
 G, KJ/KG       -848907.5-855285.9-861673.6-868070.5-874476.5-880891.3-887314.9-893747.1
 S, KJ/(KG)(K)   127.4732 127.6618 127.8471 128.0293 128.2084 128.3846 128.5579 128.7284

 M, (1/n)           1.086    1.084    1.082    1.080    1.079    1.077    1.075    1.073
 (dLV/dLP)t      -1.06167 -1.06044 -1.05924 -1.05806 -1.05690 -1.05576 -1.05465 -1.05356
 (dLV/dLT)p        1.3598   1.3509   1.3423   1.3338   1.3256   1.3176   1.3098   1.3022
 Cp, KJ/(KG)(K)   36.5256  36.0800  35.6469  35.2261  34.8175  34.4207  34.0355  33.6617
 GAMMAs            1.4834   1.4869   1.4905   1.4940   1.4974   1.5008   1.5042   1.5075
 SON VEL,M/SEC    10440.5  10490.0  10539.0  10587.7  10636.0  10684.0  10731.6  10778.8

 TRANSPORT PROPERTIES (GASES ONLY)
   CONDUCTIVITY IN UNITS OF MILLIWATTS/(CM)(K)

 VISC,MILLIPOISE   1.1283   1.1310   1.1337   1.1364   1.1392   1.1420   1.1449   1.1478

  WITH EQUILIBRIUM REACTIONS

 Cp, KJ/(KG)(K)   36.5256  36.0800  35.6469  35.2261  34.8175  34.4207  34.0355  33.6617
 CONDUCTIVITY     64.2603  63.5899  62.9409  62.3128  61.7053  61.1179  60.5503  60.0021
 PRANDTL NUMBER    0.6413   0.6417   0.6420   0.6424   0.6428   0.6432   0.6435   0.6439

  WITH FROZEN REACTIONS

 Cp, KJ/(KG)(K)   20.4539  20.4531  20.4526  20.4524  20.4525  20.4528  20.4535  20.4544
 CONDUCTIVITY     32.9849  33.0901  33.1966  33.3044  33.4134  33.5236  33.6350  33.7476
 PRANDTL NUMBER    0.6997   0.6991   0.6984   0.6979   0.6973   0.6967   0.6962   0.6957

 MASS FRACTIONS

 *H               0.85590  0.85933  0.86267  0.86591  0.86906  0.87212  0.87509  0.87799
 *H2              0.14410  0.14067  0.13733  0.13409  0.13094  0.12788  0.12491  0.12201

  * THERMODYNAMIC PROPERTIES FITTED TO 20000.K

 NOTE. WEIGHT FRACTION OF FUEL IN TOTAL FUELS AND OF OXIDANT IN TOTAL OXIDANTS



  
