
 *******************************************************************************

         NASA-GLENN CHEMICAL EQUILIBRIUM PROGRAM CEA2, MAY 21, 2004
                   BY  BONNIE MCBRIDE AND SANFORD GORDON
      REFS: NASA RP-1311, PART I, 1994 AND NASA RP-1311, PART II, 1996

 *******************************************************************************



  prob tp ions
  p,bar= 12.0,13.2,14.8,16.5,18.0,20.0,22.5,25.0,28.0,31.0,35.0,39.0,44.0,49.0,54
 .0
  t,k= 5150,5160,5170,5180,5190,5200,5210,5220,5230,5240,5250,5260,5270,5280,5290
  
  
  reac
  fuel H2                wt%=100.0000
  oxid H2                wt%=100.0000
  
  output short
  
  output massf
  
  output siunits
  
  output transport
  
 end





               THERMODYNAMIC EQUILIBRIUM PROPERTIES AT ASSIGNED

                           TEMPERATURE AND PRESSURE

 CASE =                

             REACTANT                    WT FRACTION      ENERGY      TEMP
                                          (SEE NOTE)     KJ/KG-MOL      K  
 FUEL        H2                           1.0000000         0.000      0.000
 OXIDANT     H2                           1.0000000         0.000      0.000

 O/F=    1.00000  %FUEL= 50.000000  R,EQ.RATIO= 0.000000  PHI,EQ.RATIO=-1.000000

 THERMODYNAMIC PROPERTIES

 P, BAR            12.000   12.000   12.000   12.000   12.000   12.000   12.000   12.000
 T, K             5150.00  5160.00  5170.00  5180.00  5190.00  5200.00  5210.00  5220.00
 RHO, KG/CU M    3.2504-2 3.2375-2 3.2248-2 3.2122-2 3.1998-2 3.1875-2 3.1754-2 3.1633-2
 H, KJ/KG        255954.2 256972.5 257981.5 258981.9 259973.7 260956.8 261931.4 262897.3
 U, KJ/KG        219035.4 219907.0 220769.9 221624.6 222471.3 223309.9 224140.3 224962.8
 G, KJ/KG       -473777.2-475193.9-476613.8-478035.7-479459.4-480885.1-482312.7-483742.1
 S, KJ/(KG)(K)   141.6954 141.8927 142.0881 142.2814 142.4727 142.6619 142.8491 143.0344

 M, (1/n)           1.160    1.157    1.155    1.153    1.151    1.148    1.146    1.144
 (dLV/dLP)t      -1.09666 -1.09582 -1.09497 -1.09412 -1.09326 -1.09241 -1.09155 -1.09069
 (dLV/dLT)p        2.0492   2.0380   2.0268   2.0157   2.0045   1.9934   1.9823   1.9713
 Cp, KJ/(KG)(K)  102.1862 101.3287 100.4689  99.6081  98.7468  97.8852  97.0238  96.1629
 GAMMAs            1.2468   1.2478   1.2490   1.2501   1.2512   1.2523   1.2535   1.2547
 SON VEL,M/SEC     6784.4   6800.9   6817.3   6833.7   6850.0   6866.4   6882.6   6898.9

 TRANSPORT PROPERTIES (GASES ONLY)
   CONDUCTIVITY IN UNITS OF MILLIWATTS/(CM)(K)

 VISC,MILLIPOISE  0.69177  0.69129  0.69082  0.69036  0.68990  0.68945  0.68901  0.68858

  WITH EQUILIBRIUM REACTIONS

 Cp, KJ/(KG)(K)  102.1799 101.3287 100.4689  99.6081  98.7468  97.8852  97.0238  96.1629
 CONDUCTIVITY    116.1841 115.1391 114.0936 113.0498 112.0082 110.9691 109.9329 108.9000
 PRANDTL NUMBER    0.6084   0.6084   0.6083   0.6083   0.6082   0.6082   0.6081   0.6080

  WITH FROZEN REACTIONS

 Cp, KJ/(KG)(K)   20.5505  20.5533  20.5561  20.5588  20.5614  20.5640  20.5665  20.5690
 CONDUCTIVITY     19.7884  19.7882  19.7886  19.7892  19.7899  19.7908  19.7918  19.7931
 PRANDTL NUMBER    0.7184   0.7180   0.7176   0.7172   0.7168   0.7164   0.7160   0.7156

 MASS FRACTIONS

 *H               0.73807  0.74160  0.74508  0.74853  0.75194  0.75531  0.75864  0.76194
 *H2              0.26193  0.25840  0.25492  0.25147  0.24806  0.24469  0.24136  0.23806

  * THERMODYNAMIC PROPERTIES FITTED TO 20000.K

 NOTE. WEIGHT FRACTION OF FUEL IN TOTAL FUELS AND OF OXIDANT IN TOTAL OXIDANTS









               THERMODYNAMIC EQUILIBRIUM PROPERTIES AT ASSIGNED

                           TEMPERATURE AND PRESSURE

 CASE =                

             REACTANT                    WT FRACTION      ENERGY      TEMP
                                          (SEE NOTE)     KJ/KG-MOL      K  
 FUEL        H2                           1.0000000         0.000      0.000
 OXIDANT     H2                           1.0000000         0.000      0.000

 O/F=    1.00000  %FUEL= 50.000000  R,EQ.RATIO= 0.000000  PHI,EQ.RATIO=-1.000000

 THERMODYNAMIC PROPERTIES

 P, BAR            12.000   12.000   12.000   12.000   12.000   12.000   12.000   13.200
 T, K             5230.00  5240.00  5250.00  5260.00  5270.00  5280.00  5290.00  5150.00
 RHO, KG/CU M    3.1515-2 3.1397-2 3.1281-2 3.1166-2 3.1053-2 3.0940-2 3.0829-2 3.6091-2
 H, KJ/KG        263854.6 264803.4 265743.5 266675.1 267598.2 268512.7 269418.7 252209.0
 U, KJ/KG        225777.1 226583.4 227381.6 228171.9 228954.1 229728.4 230494.7 215635.2
 G, KJ/KG       -485173.3-486606.4-488041.3-489478.0-490916.4-492356.6-493798.5-470273.6
 S, KJ/(KG)(K)   143.2176 143.3988 143.5781 143.7553 143.9307 144.1040 144.2755 140.2879

 M, (1/n)           1.142    1.140    1.138    1.136    1.134    1.132    1.130    1.171
 (dLV/dLP)t      -1.08984 -1.08898 -1.08812 -1.08726 -1.08640 -1.08554 -1.08468 -1.10040
 (dLV/dLT)p        1.9602   1.9493   1.9383   1.9274   1.9165   1.9057   1.8949   2.0897
 Cp, KJ/(KG)(K)   95.3029  94.4442  93.5870  92.7317  91.8786  91.0281  90.1803 104.5448
 GAMMAs            1.2558   1.2570   1.2582   1.2594   1.2606   1.2619   1.2631   1.2442
 SON VEL,M/SEC     6915.1   6931.3   6947.5   6963.6   6979.7   6995.7   7011.8   6745.6

 TRANSPORT PROPERTIES (GASES ONLY)
   CONDUCTIVITY IN UNITS OF MILLIWATTS/(CM)(K)

 VISC,MILLIPOISE  0.68815  0.68773  0.68731  0.68691  0.68651  0.68612  0.68574  0.69904

  WITH EQUILIBRIUM REACTIONS

 Cp, KJ/(KG)(K)   95.3029  94.4442  93.5870  92.7317  91.8786  91.0281  90.1803 104.5448
 CONDUCTIVITY    107.8706 106.8452 105.8240 104.8073 103.7955 102.7888 101.7876 120.0699
 PRANDTL NUMBER    0.6080   0.6079   0.6078   0.6078   0.6077   0.6076   0.6075   0.6087

  WITH FROZEN REACTIONS

 Cp, KJ/(KG)(K)   20.5714  20.5737  20.5759  20.5781  20.5803  20.5824  20.5844  20.5460
 CONDUCTIVITY     19.7944  19.7960  19.7978  19.7997  19.8019  19.8042  19.8068  19.9460
 PRANDTL NUMBER    0.7152   0.7147   0.7143   0.7139   0.7135   0.7131   0.7127   0.7201

 MASS FRACTIONS

 *H               0.76520  0.76842  0.77161  0.77475  0.77786  0.78094  0.78397  0.72183
 *H2              0.23480  0.23158  0.22839  0.22524  0.22213  0.21906  0.21602  0.27817

  * THERMODYNAMIC PROPERTIES FITTED TO 20000.K

 NOTE. WEIGHT FRACTION OF FUEL IN TOTAL FUELS AND OF OXIDANT IN TOTAL OXIDANTS









               THERMODYNAMIC EQUILIBRIUM PROPERTIES AT ASSIGNED

                           TEMPERATURE AND PRESSURE

 CASE =                

             REACTANT                    WT FRACTION      ENERGY      TEMP
                                          (SEE NOTE)     KJ/KG-MOL      K  
 FUEL        H2                           1.0000000         0.000      0.000
 OXIDANT     H2                           1.0000000         0.000      0.000

 O/F=    1.00000  %FUEL= 50.000000  R,EQ.RATIO= 0.000000  PHI,EQ.RATIO=-1.000000

 THERMODYNAMIC PROPERTIES

 P, BAR            13.200   13.200   13.200   13.200   13.200   13.200   13.200   13.200
 T, K             5160.00  5170.00  5180.00  5190.00  5200.00  5210.00  5220.00  5230.00
 RHO, KG/CU M    3.5946-2 3.5802-2 3.5659-2 3.5519-2 3.5379-2 3.5242-2 3.5105-2 3.4971-2
 H, KJ/KG        253250.3 254283.5 255308.3 256324.9 257333.2 258333.2 259324.8 260308.1
 U, KJ/KG        216528.4 217413.8 218291.5 219161.3 220023.3 220877.5 221723.9 222562.4
 G, KJ/KG       -471677.5-473083.4-474491.3-475901.1-477312.9-478726.7-480142.3-481559.9
 S, KJ/(KG)(K)   140.4899 140.6899 140.8880 141.0840 141.2781 141.4702 141.6604 141.8486

 M, (1/n)           1.168    1.166    1.164    1.161    1.159    1.157    1.154    1.152
 (dLV/dLP)t      -1.09959 -1.09877 -1.09795 -1.09713 -1.09630 -1.09547 -1.09463 -1.09380
 (dLV/dLT)p        2.0788   2.0679   2.0570   2.0461   2.0352   2.0243   2.0134   2.0026
 Cp, KJ/(KG)(K)  103.7238 102.8998 102.0731 101.2441 100.4134  99.5811  98.7478  97.9138
 GAMMAs            1.2452   1.2463   1.2473   1.2484   1.2495   1.2506   1.2517   1.2528
 SON VEL,M/SEC     6762.1   6778.6   6795.0   6811.4   6827.8   6844.1   6860.4   6876.7

 TRANSPORT PROPERTIES (GASES ONLY)
   CONDUCTIVITY IN UNITS OF MILLIWATTS/(CM)(K)

 VISC,MILLIPOISE  0.69857  0.69810  0.69764  0.69718  0.69673  0.69627  0.69583  0.69539

  WITH EQUILIBRIUM REACTIONS

 Cp, KJ/(KG)(K)  103.7238 102.8998 102.0731 101.2441 100.4134  99.5811  98.7478  97.9138
 CONDUCTIVITY    119.0484 118.0265 117.0045 115.9828 114.9620 113.9423 112.9242 111.9079
 PRANDTL NUMBER    0.6086   0.6086   0.6086   0.6086   0.6086   0.6085   0.6085   0.6084

  WITH FROZEN REACTIONS

 Cp, KJ/(KG)(K)   20.5490  20.5519  20.5548  20.5575  20.5603  20.5629  20.5655  20.5680
 CONDUCTIVITY     19.9459  19.9459  19.9460  19.9463  19.9466  19.9472  19.9478  19.9487
 PRANDTL NUMBER    0.7197   0.7193   0.7189   0.7185   0.7182   0.7178   0.7174   0.7170

 MASS FRACTIONS

 *H               0.72545  0.72904  0.73259  0.73611  0.73959  0.74304  0.74645  0.74982
 *H2              0.27455  0.27096  0.26740  0.26389  0.26041  0.25696  0.25355  0.25018

  * THERMODYNAMIC PROPERTIES FITTED TO 20000.K

 NOTE. WEIGHT FRACTION OF FUEL IN TOTAL FUELS AND OF OXIDANT IN TOTAL OXIDANTS









               THERMODYNAMIC EQUILIBRIUM PROPERTIES AT ASSIGNED

                           TEMPERATURE AND PRESSURE

 CASE =                

             REACTANT                    WT FRACTION      ENERGY      TEMP
                                          (SEE NOTE)     KJ/KG-MOL      K  
 FUEL        H2                           1.0000000         0.000      0.000
 OXIDANT     H2                           1.0000000         0.000      0.000

 O/F=    1.00000  %FUEL= 50.000000  R,EQ.RATIO= 0.000000  PHI,EQ.RATIO=-1.000000

 THERMODYNAMIC PROPERTIES

 P, BAR            13.200   13.200   13.200   13.200   13.200   13.200   14.800   14.800
 T, K             5240.00  5250.00  5260.00  5270.00  5280.00  5290.00  5150.00  5160.00
 RHO, KG/CU M    3.4838-2 3.4706-2 3.4576-2 3.4447-2 3.4320-2 3.4194-2 4.0944-2 4.0775-2
 H, KJ/KG        261283.1 262249.7 263208.0 264157.9 265099.6 266032.9 247578.8 248645.7
 U, KJ/KG        223393.1 224215.9 225031.0 225838.2 226637.6 227429.2 211431.6 212348.9
 G, KJ/KG       -482979.3-484400.6-485823.7-487248.6-488675.3-490103.8-466113.5-467500.3
 S, KJ/(KG)(K)   142.0348 142.2191 142.4015 142.5819 142.7604 142.9370 138.5810 138.7880

 M, (1/n)           1.150    1.148    1.146    1.143    1.141    1.139    1.185    1.182
 (dLV/dLP)t      -1.09296 -1.09212 -1.09127 -1.09043 -1.08959 -1.08874 -1.10465 -1.10389
 (dLV/dLT)p        1.9917   1.9809   1.9701   1.9593   1.9486   1.9379   2.1359   2.1254
 Cp, KJ/(KG)(K)   97.0795  96.2452  95.4112  94.5780  93.7458  92.9149 107.0760 106.3076
 GAMMAs            1.2540   1.2551   1.2562   1.2574   1.2586   1.2598   1.2413   1.2423
 SON VEL,M/SEC     6892.9   6909.1   6925.3   6941.4   6957.5   6973.6   6698.4   6715.0

 TRANSPORT PROPERTIES (GASES ONLY)
   CONDUCTIVITY IN UNITS OF MILLIWATTS/(CM)(K)

 VISC,MILLIPOISE  0.69496  0.69453  0.69411  0.69369  0.69328  0.69288  0.70783  0.70737

  WITH EQUILIBRIUM REACTIONS

 Cp, KJ/(KG)(K)   97.0795  96.2452  95.4112  94.5780  93.7458  92.9149 107.0760 106.3076
 CONDUCTIVITY    110.8940 109.8826 108.8742 107.8691 106.8677 105.8701 124.5054 123.5244
 PRANDTL NUMBER    0.6084   0.6083   0.6083   0.6082   0.6082   0.6081   0.6087   0.6088

  WITH FROZEN REACTIONS

 Cp, KJ/(KG)(K)   20.5704  20.5728  20.5752  20.5774  20.5797  20.5818  20.5405  20.5437
 CONDUCTIVITY     19.9496  19.9508  19.9521  19.9535  19.9552  19.9570  20.1400  20.1396
 PRANDTL NUMBER    0.7166   0.7162   0.7158   0.7154   0.7150   0.7146   0.7219   0.7216

 MASS FRACTIONS

 *H               0.75315  0.75645  0.75972  0.76294  0.76614  0.76929  0.70174  0.70548
 *H2              0.24684  0.24354  0.24028  0.23705  0.23386  0.23071  0.29826  0.29452

  * THERMODYNAMIC PROPERTIES FITTED TO 20000.K

 NOTE. WEIGHT FRACTION OF FUEL IN TOTAL FUELS AND OF OXIDANT IN TOTAL OXIDANTS









               THERMODYNAMIC EQUILIBRIUM PROPERTIES AT ASSIGNED

                           TEMPERATURE AND PRESSURE

 CASE =                

             REACTANT                    WT FRACTION      ENERGY      TEMP
                                          (SEE NOTE)     KJ/KG-MOL      K  
 FUEL        H2                           1.0000000         0.000      0.000
 OXIDANT     H2                           1.0000000         0.000      0.000

 O/F=    1.00000  %FUEL= 50.000000  R,EQ.RATIO= 0.000000  PHI,EQ.RATIO=-1.000000

 THERMODYNAMIC PROPERTIES

 P, BAR            14.800   14.800   14.800   14.800   14.800   14.800   14.800   14.800
 T, K             5170.00  5180.00  5190.00  5200.00  5210.00  5220.00  5230.00  5240.00
 RHO, KG/CU M    4.0608-2 4.0443-2 4.0279-2 4.0118-2 3.9958-2 3.9800-2 3.9643-2 3.9489-2
 H, KJ/KG        249704.9 250756.4 251800.0 252835.9 253863.8 254883.8 255895.9 256900.1
 U, KJ/KG        213258.8 214161.3 215056.5 215944.3 216824.7 217697.6 218563.0 219420.9
 G, KJ/KG       -468889.2-470280.2-471673.1-473068.1-474465.1-475864.0-477264.9-478667.6
 S, KJ/(KG)(K)   138.9931 139.1962 139.3975 139.5969 139.7944 139.9900 140.1837 140.3755

 M, (1/n)           1.179    1.177    1.174    1.172    1.170    1.167    1.165    1.162
 (dLV/dLP)t      -1.10312 -1.10235 -1.10157 -1.10078 -1.09999 -1.09919 -1.09839 -1.09759
 (dLV/dLT)p        2.1150   2.1045   2.0940   2.0834   2.0729   2.0623   2.0517   2.0411
 Cp, KJ/(KG)(K)  105.5342 104.7563 103.9743 103.1885 102.3994 101.6073 100.8126 100.0158
 GAMMAs            1.2433   1.2443   1.2453   1.2463   1.2474   1.2484   1.2495   1.2506
 SON VEL,M/SEC     6731.5   6748.0   6764.4   6780.8   6797.2   6813.5   6829.9   6846.1

 TRANSPORT PROPERTIES (GASES ONLY)
   CONDUCTIVITY IN UNITS OF MILLIWATTS/(CM)(K)

 VISC,MILLIPOISE  0.70691  0.70646  0.70600  0.70555  0.70510  0.70465  0.70421  0.70377

  WITH EQUILIBRIUM REACTIONS

 Cp, KJ/(KG)(K)  105.5342 104.7563 103.9743 103.1885 102.3994 101.6073 100.8126 100.0158
 CONDUCTIVITY    122.5406 121.5546 120.5668 119.5777 118.5875 117.5969 116.6060 115.6154
 PRANDTL NUMBER    0.6088   0.6088   0.6088   0.6088   0.6088   0.6088   0.6088   0.6088

  WITH FROZEN REACTIONS

 Cp, KJ/(KG)(K)   20.5467  20.5498  20.5527  20.5556  20.5584  20.5611  20.5638  20.5664
 CONDUCTIVITY     20.1393  20.1391  20.1390  20.1390  20.1391  20.1393  20.1396  20.1400
 PRANDTL NUMBER    0.7212   0.7209   0.7205   0.7201   0.7198   0.7194   0.7190   0.7187

 MASS FRACTIONS

 *H               0.70918  0.71285  0.71649  0.72009  0.72365  0.72719  0.73068  0.73415
 *H2              0.29082  0.28715  0.28351  0.27991  0.27635  0.27281  0.26932  0.26585

  * THERMODYNAMIC PROPERTIES FITTED TO 20000.K

 NOTE. WEIGHT FRACTION OF FUEL IN TOTAL FUELS AND OF OXIDANT IN TOTAL OXIDANTS









               THERMODYNAMIC EQUILIBRIUM PROPERTIES AT ASSIGNED

                           TEMPERATURE AND PRESSURE

 CASE =                

             REACTANT                    WT FRACTION      ENERGY      TEMP
                                          (SEE NOTE)     KJ/KG-MOL      K  
 FUEL        H2                           1.0000000         0.000      0.000
 OXIDANT     H2                           1.0000000         0.000      0.000

 O/F=    1.00000  %FUEL= 50.000000  R,EQ.RATIO= 0.000000  PHI,EQ.RATIO=-1.000000

 THERMODYNAMIC PROPERTIES

 P, BAR            14.800   14.800   14.800   14.800   14.800   16.500   16.500   16.500
 T, K             5250.00  5260.00  5270.00  5280.00  5290.00  5150.00  5160.00  5170.00
 RHO, KG/CU M    3.9336-2 3.9184-2 3.9035-2 3.8887-2 3.8740-2 4.6179-2 4.5985-2 4.5792-2
 H, KJ/KG        257896.2 258884.4 259864.6 260836.7 261800.8 243059.3 244147.2 245228.0
 U, KJ/KG        220271.3 221114.2 221949.5 222777.4 223597.7 207328.5 208265.6 209195.9
 G, KJ/KG       -480072.4-481479.0-482887.4-484297.7-485709.9-462205.6-463576.1-464948.7
 S, KJ/(KG)(K)   140.5654 140.7535 140.9397 141.1240 141.3064 136.9446 137.1557 137.3649

 M, (1/n)           1.160    1.158    1.156    1.153    1.151    1.198    1.196    1.193
 (dLV/dLP)t      -1.09678 -1.09597 -1.09515 -1.09434 -1.09352 -1.10841 -1.10771 -1.10700
 (dLV/dLT)p        2.0306   2.0200   2.0094   1.9988   1.9883   2.1767   2.1668   2.1569
 Cp, KJ/(KG)(K)   99.2171  98.4170  97.6157  96.8136  96.0112 109.1488 108.4372 107.7190
 GAMMAs            1.2516   1.2527   1.2538   1.2549   1.2560   1.2388   1.2397   1.2407
 SON VEL,M/SEC     6862.4   6878.6   6894.8   6911.0   6927.1   6653.0   6669.6   6686.1

 TRANSPORT PROPERTIES (GASES ONLY)
   CONDUCTIVITY IN UNITS OF MILLIWATTS/(CM)(K)

 VISC,MILLIPOISE  0.70333  0.70290  0.70247  0.70205  0.70164  0.71617  0.71573  0.71529

  WITH EQUILIBRIUM REACTIONS

 Cp, KJ/(KG)(K)   99.2171  98.4170  97.6157  96.8136  96.0112 109.1488 108.4372 107.7190
 CONDUCTIVITY    114.6254 113.6364 112.6487 111.6627 110.6787 128.4455 127.5123 126.5744
 PRANDTL NUMBER    0.6088   0.6088   0.6087   0.6087   0.6087   0.6086   0.6087   0.6087

  WITH FROZEN REACTIONS

 Cp, KJ/(KG)(K)   20.5690  20.5715  20.5739  20.5763  20.5786  20.5351  20.5384  20.5417
 CONDUCTIVITY     20.1405  20.1412  20.1420  20.1430  20.1441  20.3277  20.3274  20.3270
 PRANDTL NUMBER    0.7183   0.7179   0.7175   0.7172   0.7168   0.7235   0.7232   0.7228

 MASS FRACTIONS

 *H               0.73757  0.74097  0.74433  0.74765  0.75094  0.68214  0.68597  0.68976
 *H2              0.26242  0.25903  0.25567  0.25235  0.24906  0.31786  0.31403  0.31023

  * THERMODYNAMIC PROPERTIES FITTED TO 20000.K

 NOTE. WEIGHT FRACTION OF FUEL IN TOTAL FUELS AND OF OXIDANT IN TOTAL OXIDANTS









               THERMODYNAMIC EQUILIBRIUM PROPERTIES AT ASSIGNED

                           TEMPERATURE AND PRESSURE

 CASE =                

             REACTANT                    WT FRACTION      ENERGY      TEMP
                                          (SEE NOTE)     KJ/KG-MOL      K  
 FUEL        H2                           1.0000000         0.000      0.000
 OXIDANT     H2                           1.0000000         0.000      0.000

 O/F=    1.00000  %FUEL= 50.000000  R,EQ.RATIO= 0.000000  PHI,EQ.RATIO=-1.000000

 THERMODYNAMIC PROPERTIES

 P, BAR            16.500   16.500   16.500   16.500   16.500   16.500   16.500   16.500
 T, K             5180.00  5190.00  5200.00  5210.00  5220.00  5230.00  5240.00  5250.00
 RHO, KG/CU M    4.5602-2 4.5414-2 4.5229-2 4.5045-2 4.4863-2 4.4682-2 4.4504-2 4.4328-2
 H, KJ/KG        246301.6 247367.9 248426.9 249478.5 250522.6 251559.3 252588.5 253610.1
 U, KJ/KG        210119.4 211035.9 211945.5 212848.0 213743.6 214632.1 215513.4 216387.7
 G, KJ/KG       -466323.4-467700.2-469079.0-470459.8-471842.6-473227.5-474614.3-476003.0
 S, KJ/(KG)(K)   137.5724 137.7780 137.9819 138.1839 138.3841 138.5826 138.7791 138.9739

 M, (1/n)           1.190    1.188    1.185    1.183    1.180    1.178    1.175    1.173
 (dLV/dLP)t      -1.10627 -1.10554 -1.10481 -1.10406 -1.10331 -1.10256 -1.10179 -1.10102
 (dLV/dLT)p        2.1468   2.1368   2.1267   2.1166   2.1064   2.0962   2.0860   2.0757
 Cp, KJ/(KG)(K)  106.9946 106.2644 105.5288 104.7881 104.0428 103.2932 102.5397 101.7827
 GAMMAs            1.2416   1.2426   1.2436   1.2446   1.2456   1.2466   1.2476   1.2486
 SON VEL,M/SEC     6702.6   6719.1   6735.6   6752.0   6768.4   6784.7   6801.1   6817.4

 TRANSPORT PROPERTIES (GASES ONLY)
   CONDUCTIVITY IN UNITS OF MILLIWATTS/(CM)(K)

 VISC,MILLIPOISE  0.71485  0.71441  0.71397  0.71353  0.71310  0.71266  0.71223  0.71179

  WITH EQUILIBRIUM REACTIONS

 Cp, KJ/(KG)(K)  106.9946 106.2644 105.5288 104.7881 104.0428 103.2932 102.5397 101.7827
 CONDUCTIVITY    125.6323 124.6863 123.7369 122.7846 121.8297 120.8726 119.9139 118.9538
 PRANDTL NUMBER    0.6088   0.6089   0.6089   0.6090   0.6090   0.6090   0.6090   0.6090

  WITH FROZEN REACTIONS

 Cp, KJ/(KG)(K)   20.5449  20.5480  20.5510  20.5540  20.5569  20.5597  20.5625  20.5652
 CONDUCTIVITY     20.3267  20.3265  20.3262  20.3261  20.3260  20.3260  20.3261  20.3262
 PRANDTL NUMBER    0.7225   0.7222   0.7219   0.7215   0.7212   0.7209   0.7205   0.7202

 MASS FRACTIONS

 *H               0.69353  0.69726  0.70096  0.70463  0.70827  0.71188  0.71545  0.71899
 *H2              0.30647  0.30274  0.29903  0.29536  0.29173  0.28812  0.28455  0.28101

  * THERMODYNAMIC PROPERTIES FITTED TO 20000.K

 NOTE. WEIGHT FRACTION OF FUEL IN TOTAL FUELS AND OF OXIDANT IN TOTAL OXIDANTS









               THERMODYNAMIC EQUILIBRIUM PROPERTIES AT ASSIGNED

                           TEMPERATURE AND PRESSURE

 CASE =                

             REACTANT                    WT FRACTION      ENERGY      TEMP
                                          (SEE NOTE)     KJ/KG-MOL      K  
 FUEL        H2                           1.0000000         0.000      0.000
 OXIDANT     H2                           1.0000000         0.000      0.000

 O/F=    1.00000  %FUEL= 50.000000  R,EQ.RATIO= 0.000000  PHI,EQ.RATIO=-1.000000

 THERMODYNAMIC PROPERTIES

 P, BAR            16.500   16.500   16.500   16.500   18.000   18.000   18.000   18.000
 T, K             5260.00  5270.00  5280.00  5290.00  5150.00  5160.00  5170.00  5180.00
 RHO, KG/CU M    4.4154-2 4.3981-2 4.3811-2 4.3642-2 5.0860-2 5.0644-2 5.0429-2 5.0217-2
 H, KJ/KG        254624.1 255630.5 256629.3 257620.4 239371.0 240473.3 241568.9 242657.7
 U, KJ/KG        217254.7 218114.6 218967.3 219812.8 203980.1 204930.8 205875.2 206813.2
 G, KJ/KG       -477393.7-478786.4-480180.9-481577.3-459111.4-460468.7-461828.2-463189.8
 S, KJ/(KG)(K)   139.1669 139.3580 139.5474 139.7349 135.6276 135.8415 136.0536 136.2640

 M, (1/n)           1.170    1.168    1.166    1.163    1.210    1.207    1.204    1.202
 (dLV/dLP)t      -1.10025 -1.09947 -1.09869 -1.09790 -1.11120 -1.11055 -1.10988 -1.10921
 (dLV/dLT)p        2.0655   2.0552   2.0449   2.0346   2.2069   2.1975   2.1881   2.1785
 Cp, KJ/(KG)(K)  101.0225 100.2595  99.4941  98.7265 110.5567 109.8947 109.2249 108.5476
 GAMMAs            1.2496   1.2507   1.2517   1.2528   1.2369   1.2378   1.2388   1.2397
 SON VEL,M/SEC     6833.6   6849.9   6866.1   6882.2   6616.4   6632.9   6649.5   6666.0

 TRANSPORT PROPERTIES (GASES ONLY)
   CONDUCTIVITY IN UNITS OF MILLIWATTS/(CM)(K)

 VISC,MILLIPOISE  0.71136  0.71094  0.71051  0.71009  0.72279  0.72238  0.72196  0.72155

  WITH EQUILIBRIUM REACTIONS

 Cp, KJ/(KG)(K)  101.0225 100.2595  99.4941  98.7265 110.5567 109.8947 109.2249 108.5476
 CONDUCTIVITY    117.9927 117.0311 116.0693 115.1076 131.3755 130.4870 129.5921 128.6914
 PRANDTL NUMBER    0.6091   0.6091   0.6090   0.6090   0.6083   0.6084   0.6085   0.6086

  WITH FROZEN REACTIONS

 Cp, KJ/(KG)(K)   20.5678  20.5704  20.5729  20.5754  20.5307  20.5342  20.5375  20.5409
 CONDUCTIVITY     20.3265  20.3269  20.3273  20.3279  20.4796  20.4794  20.4792  20.4789
 PRANDTL NUMBER    0.7198   0.7195   0.7191   0.7187   0.7246   0.7243   0.7240   0.7237

 MASS FRACTIONS

 *H               0.72249  0.72596  0.72940  0.73281  0.66614  0.67003  0.67389  0.67773
 *H2              0.27751  0.27404  0.27060  0.26719  0.33386  0.32997  0.32611  0.32227

  * THERMODYNAMIC PROPERTIES FITTED TO 20000.K

 NOTE. WEIGHT FRACTION OF FUEL IN TOTAL FUELS AND OF OXIDANT IN TOTAL OXIDANTS









               THERMODYNAMIC EQUILIBRIUM PROPERTIES AT ASSIGNED

                           TEMPERATURE AND PRESSURE

 CASE =                

             REACTANT                    WT FRACTION      ENERGY      TEMP
                                          (SEE NOTE)     KJ/KG-MOL      K  
 FUEL        H2                           1.0000000         0.000      0.000
 OXIDANT     H2                           1.0000000         0.000      0.000

 O/F=    1.00000  %FUEL= 50.000000  R,EQ.RATIO= 0.000000  PHI,EQ.RATIO=-1.000000

 THERMODYNAMIC PROPERTIES

 P, BAR            18.000   18.000   18.000   18.000   18.000   18.000   18.000   18.000
 T, K             5190.00  5200.00  5210.00  5220.00  5230.00  5240.00  5250.00  5260.00
 RHO, KG/CU M    5.0007-2 4.9799-2 4.9593-2 4.9390-2 4.9188-2 4.8989-2 4.8792-2 4.8597-2
 H, KJ/KG        243739.8 244815.0 245883.2 246944.5 247998.6 249045.7 250085.6 251118.3
 U, KJ/KG        207744.6 208669.6 209587.9 210499.6 211404.5 212302.8 213194.2 214078.8
 G, KJ/KG       -464553.5-465919.2-467287.1-468656.9-470028.8-471402.7-472778.6-474156.5
 S, KJ/(KG)(K)   136.4727 136.6797 136.8849 137.0884 137.2901 137.4902 137.6884 137.8849

 M, (1/n)           1.199    1.196    1.194    1.191    1.188    1.186    1.183    1.181
 (dLV/dLP)t      -1.10852 -1.10783 -1.10713 -1.10642 -1.10571 -1.10498 -1.10425 -1.10352
 (dLV/dLT)p        2.1689   2.1592   2.1495   2.1397   2.1299   2.1200   2.1101   2.1002
 Cp, KJ/(KG)(K)  107.8634 107.1724 106.4752 105.7721 105.0634 104.3496 103.6309 102.9078
 GAMMAs            1.2406   1.2415   1.2425   1.2434   1.2444   1.2454   1.2464   1.2474
 SON VEL,M/SEC     6682.5   6699.0   6715.4   6731.8   6748.2   6764.6   6780.9   6797.2

 TRANSPORT PROPERTIES (GASES ONLY)
   CONDUCTIVITY IN UNITS OF MILLIWATTS/(CM)(K)

 VISC,MILLIPOISE  0.72113  0.72071  0.72028  0.71986  0.71944  0.71902  0.71859  0.71817

  WITH EQUILIBRIUM REACTIONS

 Cp, KJ/(KG)(K)  107.8634 107.1724 106.4752 105.7721 105.0634 104.3496 103.6309 102.9078
 CONDUCTIVITY    127.7853 126.8743 125.9587 125.0390 124.1155 123.1888 122.2593 121.3272
 PRANDTL NUMBER    0.6087   0.6088   0.6089   0.6089   0.6090   0.6091   0.6091   0.6091

  WITH FROZEN REACTIONS

 Cp, KJ/(KG)(K)   20.5441  20.5473  20.5504  20.5534  20.5563  20.5592  20.5621  20.5648
 CONDUCTIVITY     20.4787  20.4785  20.4783  20.4782  20.4781  20.4780  20.4780  20.4781
 PRANDTL NUMBER    0.7234   0.7231   0.7228   0.7225   0.7222   0.7219   0.7215   0.7212

 MASS FRACTIONS

 *H               0.68153  0.68530  0.68904  0.69275  0.69643  0.70008  0.70370  0.70729
 *H2              0.31847  0.31470  0.31096  0.30725  0.30357  0.29992  0.29630  0.29271

  * THERMODYNAMIC PROPERTIES FITTED TO 20000.K

 NOTE. WEIGHT FRACTION OF FUEL IN TOTAL FUELS AND OF OXIDANT IN TOTAL OXIDANTS









               THERMODYNAMIC EQUILIBRIUM PROPERTIES AT ASSIGNED

                           TEMPERATURE AND PRESSURE

 CASE =                

             REACTANT                    WT FRACTION      ENERGY      TEMP
                                          (SEE NOTE)     KJ/KG-MOL      K  
 FUEL        H2                           1.0000000         0.000      0.000
 OXIDANT     H2                           1.0000000         0.000      0.000

 O/F=    1.00000  %FUEL= 50.000000  R,EQ.RATIO= 0.000000  PHI,EQ.RATIO=-1.000000

 THERMODYNAMIC PROPERTIES

 P, BAR            18.000   18.000   18.000   20.000   20.000   20.000   20.000   20.000
 T, K             5270.00  5280.00  5290.00  5150.00  5160.00  5170.00  5180.00  5190.00
 RHO, KG/CU M    4.8404-2 4.8213-2 4.8024-2 5.7187-2 5.6940-2 5.6695-2 5.6452-2 5.6212-2
 H, KJ/KG        252143.8 253161.9 254172.7 234834.2 235950.7 237061.1 238165.5 239263.6
 U, KJ/KG        214956.6 215827.4 216691.3 199861.2 200825.7 201784.4 202737.2 203684.1
 G, KJ/KG       -475536.3-476918.1-478301.8-455404.5-456745.9-458089.4-459435.0-460782.8
 S, KJ/(KG)(K)   138.0797 138.2727 138.4640 134.0269 134.2435 134.4585 134.6719 134.8837

 M, (1/n)           1.178    1.176    1.173    1.224    1.221    1.219    1.216    1.213
 (dLV/dLP)t      -1.10277 -1.10202 -1.10127 -1.11427 -1.11369 -1.11309 -1.11248 -1.11186
 (dLV/dLT)p        2.0902   2.0803   2.0702   2.2403   2.2316   2.2227   2.2138   2.2048
 Cp, KJ/(KG)(K)  102.1805 101.4495 100.7152 111.9483 111.3502 110.7430 110.1272 109.5029
 GAMMAs            1.2484   1.2494   1.2504   1.2348   1.2357   1.2366   1.2375   1.2384
 SON VEL,M/SEC     6813.4   6829.7   6845.9   6571.6   6588.2   6604.8   6621.3   6637.8

 TRANSPORT PROPERTIES (GASES ONLY)
   CONDUCTIVITY IN UNITS OF MILLIWATTS/(CM)(K)

 VISC,MILLIPOISE  0.71775  0.71734  0.71692  0.73070  0.73033  0.72995  0.72957  0.72919

  WITH EQUILIBRIUM REACTIONS

 Cp, KJ/(KG)(K)  102.1805 101.4495 100.7152 111.9483 111.3502 110.7430 110.1272 109.5029
 CONDUCTIVITY    120.3930 119.4572 118.5200 134.6278 133.7999 132.9640 132.1205 131.2697
 PRANDTL NUMBER    0.6092   0.6092   0.6092   0.6076   0.6078   0.6080   0.6081   0.6083

  WITH FROZEN REACTIONS

 Cp, KJ/(KG)(K)   20.5675  20.5701  20.5727  20.5253  20.5289  20.5324  20.5359  20.5393
 CONDUCTIVITY     20.4782  20.4784  20.4788  20.6645  20.6647  20.6648  20.6649  20.6649
 PRANDTL NUMBER    0.7209   0.7205   0.7202   0.7258   0.7255   0.7253   0.7250   0.7248

 MASS FRACTIONS

 *H               0.71084  0.71436  0.71786  0.64646  0.65042  0.65434  0.65824  0.66211
 *H2              0.28916  0.28563  0.28214  0.35353  0.34958  0.34566  0.34176  0.33789

  * THERMODYNAMIC PROPERTIES FITTED TO 20000.K

 NOTE. WEIGHT FRACTION OF FUEL IN TOTAL FUELS AND OF OXIDANT IN TOTAL OXIDANTS









               THERMODYNAMIC EQUILIBRIUM PROPERTIES AT ASSIGNED

                           TEMPERATURE AND PRESSURE

 CASE =                

             REACTANT                    WT FRACTION      ENERGY      TEMP
                                          (SEE NOTE)     KJ/KG-MOL      K  
 FUEL        H2                           1.0000000         0.000      0.000
 OXIDANT     H2                           1.0000000         0.000      0.000

 O/F=    1.00000  %FUEL= 50.000000  R,EQ.RATIO= 0.000000  PHI,EQ.RATIO=-1.000000

 THERMODYNAMIC PROPERTIES

 P, BAR            20.000   20.000   20.000   20.000   20.000   20.000   20.000   20.000
 T, K             5200.00  5210.00  5220.00  5230.00  5240.00  5250.00  5260.00  5270.00
 RHO, KG/CU M    5.5974-2 5.5739-2 5.5507-2 5.5276-2 5.5048-2 5.4823-2 5.4599-2 5.4378-2
 H, KJ/KG        240355.5 241441.0 242520.1 243592.7 244658.7 245718.0 246770.7 247816.6
 U, KJ/KG        204624.9 205559.7 206488.3 207410.8 208326.9 209236.8 210140.2 211037.3
 G, KJ/KG       -462132.7-463484.7-464838.8-466194.9-467553.0-468913.2-470275.4-471639.6
 S, KJ/(KG)(K)   135.0939 135.3024 135.5094 135.7146 135.9183 136.1202 136.3206 136.5192

 M, (1/n)           1.210    1.207    1.205    1.202    1.199    1.197    1.194    1.191
 (dLV/dLP)t      -1.11123 -1.11059 -1.10994 -1.10928 -1.10861 -1.10793 -1.10725 -1.10655
 (dLV/dLT)p        2.1957   2.1866   2.1774   2.1681   2.1587   2.1493   2.1398   2.1303
 Cp, KJ/(KG)(K)  108.8707 108.2308 107.5836 106.9295 106.2687 105.6017 104.9288 104.2504
 GAMMAs            1.2392   1.2402   1.2411   1.2420   1.2429   1.2438   1.2448   1.2457
 SON VEL,M/SEC     6654.3   6670.7   6687.1   6703.5   6719.9   6736.2   6752.6   6768.9

 TRANSPORT PROPERTIES (GASES ONLY)
   CONDUCTIVITY IN UNITS OF MILLIWATTS/(CM)(K)

 VISC,MILLIPOISE  0.72880  0.72841  0.72801  0.72762  0.72722  0.72682  0.72642  0.72601

  WITH EQUILIBRIUM REACTIONS

 Cp, KJ/(KG)(K)  108.8707 108.2308 107.5836 106.9295 106.2687 105.6017 104.9288 104.2504
 CONDUCTIVITY    130.4122 129.5483 128.6785 127.8032 126.9228 126.0377 125.1483 124.2550
 PRANDTL NUMBER    0.6084   0.6085   0.6087   0.6088   0.6089   0.6090   0.6091   0.6091

  WITH FROZEN REACTIONS

 Cp, KJ/(KG)(K)   20.5426  20.5459  20.5491  20.5522  20.5552  20.5582  20.5611  20.5639
 CONDUCTIVITY     20.6649  20.6649  20.6648  20.6648  20.6648  20.6648  20.6648  20.6648
 PRANDTL NUMBER    0.7245   0.7242   0.7239   0.7237   0.7234   0.7231   0.7228   0.7225

 MASS FRACTIONS

 *H               0.66596  0.66977  0.67356  0.67732  0.68106  0.68476  0.68843  0.69208
 *H2              0.33404  0.33022  0.32644  0.32267  0.31894  0.31524  0.31157  0.30792

  * THERMODYNAMIC PROPERTIES FITTED TO 20000.K

 NOTE. WEIGHT FRACTION OF FUEL IN TOTAL FUELS AND OF OXIDANT IN TOTAL OXIDANTS









               THERMODYNAMIC EQUILIBRIUM PROPERTIES AT ASSIGNED

                           TEMPERATURE AND PRESSURE

 CASE =                

             REACTANT                    WT FRACTION      ENERGY      TEMP
                                          (SEE NOTE)     KJ/KG-MOL      K  
 FUEL        H2                           1.0000000         0.000      0.000
 OXIDANT     H2                           1.0000000         0.000      0.000

 O/F=    1.00000  %FUEL= 50.000000  R,EQ.RATIO= 0.000000  PHI,EQ.RATIO=-1.000000

 THERMODYNAMIC PROPERTIES

 P, BAR            20.000   20.000   22.500   22.500   22.500   22.500   22.500   22.500
 T, K             5280.00  5290.00  5150.00  5160.00  5170.00  5180.00  5190.00  5200.00
 RHO, KG/CU M    5.4160-2 5.3943-2 6.5219-2 6.4933-2 6.4649-2 6.4368-2 6.4090-2 6.3815-2
 H, KJ/KG        248855.7 249887.9 229691.0 230819.2 231942.2 233059.7 234171.9 235278.4
 U, KJ/KG        211927.9 212812.0 195191.9 196167.9 197138.9 198104.6 199065.0 200020.1
 G, KJ/KG       -473005.8-474374.0-451313.2-452636.6-453962.2-455290.0-456619.9-457952.0
 S, KJ/(KG)(K)   136.7162 136.9115 132.2338 132.4527 132.6701 132.8860 133.1005 133.3135

 M, (1/n)           1.189    1.186    1.241    1.238    1.235    1.232    1.229    1.226
 (dLV/dLP)t      -1.10585 -1.10515 -1.11729 -1.11679 -1.11627 -1.11574 -1.11520 -1.11464
 (dLV/dLT)p        2.1208   2.1112   2.2731   2.2652   2.2571   2.2490   2.2408   2.2324
 Cp, KJ/(KG)(K)  103.5667 102.8782 113.0853 112.5622 112.0290 111.4858 110.9331 110.3711
 GAMMAs            1.2467   1.2477   1.2327   1.2335   1.2344   1.2352   1.2360   1.2369
 SON VEL,M/SEC     6785.1   6801.4   6521.3   6537.9   6554.4   6570.9   6587.4   6603.8

 TRANSPORT PROPERTIES (GASES ONLY)
   CONDUCTIVITY IN UNITS OF MILLIWATTS/(CM)(K)

 VISC,MILLIPOISE  0.72561  0.72521  0.73935  0.73904  0.73871  0.73839  0.73805  0.73771

  WITH EQUILIBRIUM REACTIONS

 Cp, KJ/(KG)(K)  103.5667 102.8782 113.0853 112.5622 112.0290 111.4858 110.9331 110.3711
 CONDUCTIVITY    123.3581 122.4582 137.8448 137.0924 136.3302 135.5585 134.7778 133.9884
 PRANDTL NUMBER    0.6092   0.6093   0.6065   0.6068   0.6070   0.6073   0.6075   0.6077

  WITH FROZEN REACTIONS

 Cp, KJ/(KG)(K)   20.5667  20.5694  20.5192  20.5229  20.5267  20.5303  20.5339  20.5374
 CONDUCTIVITY     20.6649  20.6650  20.8714  20.8722  20.8730  20.8737  20.8742  20.8747
 PRANDTL NUMBER    0.7222   0.7219   0.7269   0.7267   0.7265   0.7262   0.7260   0.7258

 MASS FRACTIONS

 *H               0.69569  0.69927  0.62416  0.62816  0.63214  0.63610  0.64003  0.64394
 *H2              0.30431  0.30072  0.37584  0.37184  0.36786  0.36390  0.35997  0.35606

  * THERMODYNAMIC PROPERTIES FITTED TO 20000.K

 NOTE. WEIGHT FRACTION OF FUEL IN TOTAL FUELS AND OF OXIDANT IN TOTAL OXIDANTS









               THERMODYNAMIC EQUILIBRIUM PROPERTIES AT ASSIGNED

                           TEMPERATURE AND PRESSURE

 CASE =                

             REACTANT                    WT FRACTION      ENERGY      TEMP
                                          (SEE NOTE)     KJ/KG-MOL      K  
 FUEL        H2                           1.0000000         0.000      0.000
 OXIDANT     H2                           1.0000000         0.000      0.000

 O/F=    1.00000  %FUEL= 50.000000  R,EQ.RATIO= 0.000000  PHI,EQ.RATIO=-1.000000

 THERMODYNAMIC PROPERTIES

 P, BAR            22.500   22.500   22.500   22.500   22.500   22.500   22.500   22.500
 T, K             5210.00  5220.00  5230.00  5240.00  5250.00  5260.00  5270.00  5280.00
 RHO, KG/CU M    6.3542-2 6.3272-2 6.3005-2 6.2741-2 6.2479-2 6.2219-2 6.1963-2 6.1709-2
 H, KJ/KG        236379.2 237474.4 238563.6 239647.0 240724.3 241795.6 242860.8 243919.7
 U, KJ/KG        200969.7 201913.7 202852.2 203785.0 204712.0 205633.3 206548.6 207458.1
 G, KJ/KG       -459286.2-460622.5-461960.9-463301.4-464643.9-465988.5-467335.1-468683.7
 S, KJ/(KG)(K)   133.5250 133.7350 133.9435 134.1504 134.3559 134.5597 134.7620 134.9628

 M, (1/n)           1.223    1.221    1.218    1.215    1.212    1.209    1.207    1.204
 (dLV/dLP)t      -1.11408 -1.11350 -1.11291 -1.11231 -1.11170 -1.11108 -1.11045 -1.10981
 (dLV/dLT)p        2.2240   2.2155   2.2069   2.1982   2.1894   2.1806   2.1717   2.1627
 Cp, KJ/(KG)(K)  109.8002 109.2206 108.6327 108.0369 107.4334 106.8225 106.2047 105.5801
 GAMMAs            1.2377   1.2386   1.2395   1.2404   1.2413   1.2421   1.2430   1.2440
 SON VEL,M/SEC     6620.3   6636.7   6653.1   6669.5   6685.8   6702.2   6718.5   6734.7

 TRANSPORT PROPERTIES (GASES ONLY)
   CONDUCTIVITY IN UNITS OF MILLIWATTS/(CM)(K)

 VISC,MILLIPOISE  0.73736  0.73701  0.73666  0.73630  0.73593  0.73557  0.73520  0.73482

  WITH EQUILIBRIUM REACTIONS

 Cp, KJ/(KG)(K)  109.8002 109.2206 108.6327 108.0369 107.4334 106.8225 106.2047 105.5801
 CONDUCTIVITY    133.1909 132.3855 131.5727 130.7529 129.9265 129.0939 128.2554 127.4115
 PRANDTL NUMBER    0.6079   0.6080   0.6082   0.6084   0.6085   0.6087   0.6088   0.6089

  WITH FROZEN REACTIONS

 Cp, KJ/(KG)(K)   20.5408  20.5441  20.5474  20.5506  20.5538  20.5568  20.5598  20.5628
 CONDUCTIVITY     20.8751  20.8754  20.8757  20.8760  20.8762  20.8764  20.8766  20.8767
 PRANDTL NUMBER    0.7256   0.7253   0.7251   0.7248   0.7246   0.7243   0.7240   0.7238

 MASS FRACTIONS

 *H               0.64782  0.65168  0.65551  0.65932  0.66310  0.66686  0.67058  0.67428
 *H2              0.35218  0.34832  0.34449  0.34068  0.33690  0.33314  0.32942  0.32572

  * THERMODYNAMIC PROPERTIES FITTED TO 20000.K

 NOTE. WEIGHT FRACTION OF FUEL IN TOTAL FUELS AND OF OXIDANT IN TOTAL OXIDANTS









               THERMODYNAMIC EQUILIBRIUM PROPERTIES AT ASSIGNED

                           TEMPERATURE AND PRESSURE

 CASE =                

             REACTANT                    WT FRACTION      ENERGY      TEMP
                                          (SEE NOTE)     KJ/KG-MOL      K  
 FUEL        H2                           1.0000000         0.000      0.000
 OXIDANT     H2                           1.0000000         0.000      0.000

 O/F=    1.00000  %FUEL= 50.000000  R,EQ.RATIO= 0.000000  PHI,EQ.RATIO=-1.000000

 THERMODYNAMIC PROPERTIES

 P, BAR            22.500   25.000   25.000   25.000   25.000   25.000   25.000   25.000
 T, K             5290.00  5150.00  5160.00  5170.00  5180.00  5190.00  5200.00  5210.00
 RHO, KG/CU M    6.1457-2 7.3376-2 7.3050-2 7.2727-2 7.2408-2 7.2091-2 7.1777-2 7.1467-2
 H, KJ/KG        244972.3 225045.9 226180.9 227311.3 228436.9 229557.8 230673.7 231784.7
 U, KJ/KG        208361.5 190974.8 191957.8 192936.2 193910.1 194879.3 195843.7 196803.3
 G, KJ/KG       -470034.3-447700.8-449008.2-450317.8-451629.6-452943.6-454259.7-455577.9
 S, KJ/(KG)(K)   135.1619 130.6304 130.8506 131.0695 131.2870 131.5032 131.7180 131.9314

 M, (1/n)           1.201    1.257    1.254    1.251    1.247    1.244    1.241    1.238
 (dLV/dLP)t      -1.10917 -1.11959 -1.11916 -1.11872 -1.11827 -1.11780 -1.11732 -1.11682
 (dLV/dLT)p        2.1537   2.2980   2.2909   2.2836   2.2763   2.2688   2.2612   2.2535
 Cp, KJ/(KG)(K)  104.9492 113.7225 113.2685 112.8036 112.3279 111.8417 111.3454 110.8392
 GAMMAs            1.2449   1.2310   1.2317   1.2325   1.2333   1.2341   1.2350   1.2358
 SON VEL,M/SEC     6751.0   6476.1   6492.6   6509.1   6525.6   6542.0   6558.5   6574.9

 TRANSPORT PROPERTIES (GASES ONLY)
   CONDUCTIVITY IN UNITS OF MILLIWATTS/(CM)(K)

 VISC,MILLIPOISE  0.73445  0.74686  0.74660  0.74634  0.74607  0.74579  0.74550  0.74520

  WITH EQUILIBRIUM REACTIONS

 Cp, KJ/(KG)(K)  104.9492 113.7225 113.2685 112.8036 112.3279 111.8417 111.3454 110.8392
 CONDUCTIVITY    126.5626 140.3208 139.6415 138.9509 138.2494 137.5375 136.8156 136.0839
 PRANDTL NUMBER    0.6090   0.6053   0.6056   0.6059   0.6062   0.6065   0.6067   0.6070

  WITH FROZEN REACTIONS

 Cp, KJ/(KG)(K)   20.5657  20.5136  20.5175  20.5214  20.5252  20.5289  20.5326  20.5362
 CONDUCTIVITY     20.8769  21.0552  21.0570  21.0585  21.0600  21.0612  21.0624  21.0634
 PRANDTL NUMBER    0.7235   0.7276   0.7275   0.7273   0.7271   0.7269   0.7267   0.7266

 MASS FRACTIONS

 *H               0.67796  0.60401  0.60804  0.61205  0.61605  0.62002  0.62397  0.62789
 *H2              0.32204  0.39599  0.39196  0.38795  0.38395  0.37998  0.37603  0.37210

  * THERMODYNAMIC PROPERTIES FITTED TO 20000.K

 NOTE. WEIGHT FRACTION OF FUEL IN TOTAL FUELS AND OF OXIDANT IN TOTAL OXIDANTS









               THERMODYNAMIC EQUILIBRIUM PROPERTIES AT ASSIGNED

                           TEMPERATURE AND PRESSURE

 CASE =                

             REACTANT                    WT FRACTION      ENERGY      TEMP
                                          (SEE NOTE)     KJ/KG-MOL      K  
 FUEL        H2                           1.0000000         0.000      0.000
 OXIDANT     H2                           1.0000000         0.000      0.000

 O/F=    1.00000  %FUEL= 50.000000  R,EQ.RATIO= 0.000000  PHI,EQ.RATIO=-1.000000

 THERMODYNAMIC PROPERTIES

 P, BAR            25.000   25.000   25.000   25.000   25.000   25.000   25.000   25.000
 T, K             5220.00  5230.00  5240.00  5250.00  5260.00  5270.00  5280.00  5290.00
 RHO, KG/CU M    7.1159-2 7.0854-2 7.0553-2 7.0254-2 6.9958-2 6.9665-2 6.9375-2 6.9088-2
 H, KJ/KG        232890.5 233991.1 235086.4 236176.3 237260.8 238339.7 239413.0 240480.6
 U, KJ/KG        197757.9 198707.5 199651.9 200591.2 201525.1 202453.8 203377.0 204294.8
 G, KJ/KG       -456898.3-458220.8-459545.4-460872.1-462200.8-463531.6-464864.4-466199.3
 S, KJ/(KG)(K)   132.1434 132.3541 132.5633 132.7711 132.9775 133.1824 133.3859 133.5879

 M, (1/n)           1.235    1.232    1.230    1.227    1.224    1.221    1.218    1.215
 (dLV/dLP)t      -1.11632 -1.11580 -1.11527 -1.11472 -1.11417 -1.11360 -1.11303 -1.11244
 (dLV/dLT)p        2.2456   2.2377   2.2297   2.2216   2.2134   2.2051   2.1968   2.1883
 Cp, KJ/(KG)(K)  110.3235 109.7984 109.2643 108.7215 108.1703 107.6109 107.0438 106.4691
 GAMMAs            1.2366   1.2374   1.2383   1.2391   1.2400   1.2408   1.2417   1.2426
 SON VEL,M/SEC     6591.3   6607.7   6624.0   6640.4   6656.7   6673.0   6689.2   6705.5

 TRANSPORT PROPERTIES (GASES ONLY)
   CONDUCTIVITY IN UNITS OF MILLIWATTS/(CM)(K)

 VISC,MILLIPOISE  0.74490  0.74459  0.74428  0.74396  0.74363  0.74330  0.74297  0.74263

  WITH EQUILIBRIUM REACTIONS

 Cp, KJ/(KG)(K)  110.3235 109.7984 109.2643 108.7215 108.1703 107.6109 107.0438 106.4691
 CONDUCTIVITY    135.3428 134.5929 133.8343 133.0676 132.2931 131.5111 130.7221 129.9264
 PRANDTL NUMBER    0.6072   0.6074   0.6076   0.6078   0.6080   0.6082   0.6084   0.6086

  WITH FROZEN REACTIONS

 Cp, KJ/(KG)(K)   20.5397  20.5431  20.5464  20.5497  20.5530  20.5561  20.5592  20.5622
 CONDUCTIVITY     21.0643  21.0651  21.0659  21.0665  21.0671  21.0676  21.0681  21.0686
 PRANDTL NUMBER    0.7263   0.7261   0.7259   0.7257   0.7255   0.7253   0.7250   0.7248

 MASS FRACTIONS

 *H               0.63180  0.63568  0.63954  0.64338  0.64719  0.65098  0.65474  0.65848
 *H2              0.36820  0.36432  0.36046  0.35662  0.35281  0.34902  0.34526  0.34152

  * THERMODYNAMIC PROPERTIES FITTED TO 20000.K

 NOTE. WEIGHT FRACTION OF FUEL IN TOTAL FUELS AND OF OXIDANT IN TOTAL OXIDANTS









               THERMODYNAMIC EQUILIBRIUM PROPERTIES AT ASSIGNED

                           TEMPERATURE AND PRESSURE

 CASE =                

             REACTANT                    WT FRACTION      ENERGY      TEMP
                                          (SEE NOTE)     KJ/KG-MOL      K  
 FUEL        H2                           1.0000000         0.000      0.000
 OXIDANT     H2                           1.0000000         0.000      0.000

 O/F=    1.00000  %FUEL= 50.000000  R,EQ.RATIO= 0.000000  PHI,EQ.RATIO=-1.000000

 THERMODYNAMIC PROPERTIES

 P, BAR            28.000   28.000   28.000   28.000   28.000   28.000   28.000   28.000
 T, K             5150.00  5160.00  5170.00  5180.00  5190.00  5200.00  5210.00  5220.00
 RHO, KG/CU M    8.3312-2 8.2939-2 8.2569-2 8.2202-2 8.1838-2 8.1478-2 8.1121-2 8.0768-2
 H, KJ/KG        220024.2 221162.4 222296.8 223427.2 224553.5 225675.6 226793.5 227906.9
 U, KJ/KG        186415.7 187402.5 188385.5 189364.6 190339.7 191310.6 192277.3 193239.7
 G, KJ/KG       -443865.8-445156.0-446448.4-447743.0-449039.8-450338.8-451639.9-452943.1
 S, KJ/(KG)(K)   128.9107 129.1315 129.3511 129.5695 129.7868 130.0028 130.2175 130.4310

 M, (1/n)           1.274    1.271    1.268    1.264    1.261    1.258    1.255    1.252
 (dLV/dLP)t      -1.12162 -1.12128 -1.12092 -1.12055 -1.12017 -1.11977 -1.11936 -1.11893
 (dLV/dLT)p        2.3200   2.3138   2.3074   2.3009   2.2943   2.2875   2.2806   2.2736
 Cp, KJ/(KG)(K)  114.0098 113.6307 113.2399 112.8379 112.4247 112.0006 111.5659 111.1208
 GAMMAs            1.2292   1.2300   1.2307   1.2315   1.2323   1.2330   1.2338   1.2346
 SON VEL,M/SEC     6427.5   6443.9   6460.3   6476.7   6493.1   6509.5   6525.9   6542.2

 TRANSPORT PROPERTIES (GASES ONLY)
   CONDUCTIVITY IN UNITS OF MILLIWATTS/(CM)(K)

 VISC,MILLIPOISE  0.75463  0.75445  0.75426  0.75406  0.75385  0.75363  0.75340  0.75316

  WITH EQUILIBRIUM REACTIONS

 Cp, KJ/(KG)(K)  114.0098 113.6307 113.2399 112.8379 112.4247 112.0006 111.5659 111.1208
 CONDUCTIVITY    142.5386 141.9423 141.3335 140.7126 140.0799 139.4357 138.7805 138.1145
 PRANDTL NUMBER    0.6036   0.6040   0.6043   0.6047   0.6050   0.6053   0.6057   0.6060

  WITH FROZEN REACTIONS

 Cp, KJ/(KG)(K)   20.5076  20.5117  20.5157  20.5197  20.5236  20.5274  20.5311  20.5348
 CONDUCTIVITY     21.2504  21.2533  21.2560  21.2585  21.2608  21.2630  21.2649  21.2667
 PRANDTL NUMBER    0.7282   0.7281   0.7280   0.7279   0.7277   0.7276   0.7274   0.7272

 MASS FRACTIONS

 *H               0.58223  0.58627  0.59030  0.59432  0.59831  0.60229  0.60625  0.61018
 *H2              0.41777  0.41372  0.40969  0.40568  0.40169  0.39771  0.39375  0.38981

  * THERMODYNAMIC PROPERTIES FITTED TO 20000.K

 NOTE. WEIGHT FRACTION OF FUEL IN TOTAL FUELS AND OF OXIDANT IN TOTAL OXIDANTS









               THERMODYNAMIC EQUILIBRIUM PROPERTIES AT ASSIGNED

                           TEMPERATURE AND PRESSURE

 CASE =                

             REACTANT                    WT FRACTION      ENERGY      TEMP
                                          (SEE NOTE)     KJ/KG-MOL      K  
 FUEL        H2                           1.0000000         0.000      0.000
 OXIDANT     H2                           1.0000000         0.000      0.000

 O/F=    1.00000  %FUEL= 50.000000  R,EQ.RATIO= 0.000000  PHI,EQ.RATIO=-1.000000

 THERMODYNAMIC PROPERTIES

 P, BAR            28.000   28.000   28.000   28.000   28.000   28.000   28.000   31.000
 T, K             5230.00  5240.00  5250.00  5260.00  5270.00  5280.00  5290.00  5150.00
 RHO, KG/CU M    8.0418-2 8.0071-2 7.9727-2 7.9387-2 7.9050-2 7.8716-2 7.8385-2 9.3395-2
 H, KJ/KG        229015.8 230120.2 231219.8 232314.7 233404.6 234489.6 235569.5 215509.3
 U, KJ/KG        194197.7 195151.2 196100.1 197044.4 197983.9 198918.6 199848.4 182316.8
 G, KJ/KG       -454248.5-455556.0-456865.6-458177.2-459491.0-460806.8-462124.7-440466.2
 S, KJ/(KG)(K)   130.6433 130.8542 131.0639 131.2722 131.4792 131.6849 131.8893 127.3739

 M, (1/n)           1.249    1.246    1.243    1.240    1.237    1.234    1.231    1.290
 (dLV/dLP)t      -1.11849 -1.11804 -1.11757 -1.11710 -1.11661 -1.11610 -1.11559 -1.12304
 (dLV/dLT)p        2.2665   2.2593   2.2520   2.2445   2.2370   2.2293   2.2216   2.3354
 Cp, KJ/(KG)(K)  110.6656 110.2005 109.7258 109.2418 108.7486 108.2467 107.7361 113.9240
 GAMMAs            1.2354   1.2362   1.2370   1.2378   1.2386   1.2395   1.2403   1.2278
 SON VEL,M/SEC     6558.5   6574.9   6591.2   6607.5   6623.7   6640.0   6656.2   6383.9

 TRANSPORT PROPERTIES (GASES ONLY)
   CONDUCTIVITY IN UNITS OF MILLIWATTS/(CM)(K)

 VISC,MILLIPOISE  0.75291  0.75266  0.75239  0.75212  0.75185  0.75156  0.75127  0.76129

  WITH EQUILIBRIUM REACTIONS

 Cp, KJ/(KG)(K)  110.6656 110.2005 109.7258 109.2418 108.7486 108.2467 107.7361 113.9240
 CONDUCTIVITY    137.4381 136.7517 136.0556 135.3502 134.6358 133.9127 133.1815 144.1251
 PRANDTL NUMBER    0.6062   0.6065   0.6068   0.6070   0.6073   0.6075   0.6077   0.6018

  WITH FROZEN REACTIONS

 Cp, KJ/(KG)(K)   20.5384  20.5419  20.5453  20.5487  20.5520  20.5553  20.5584  20.5022
 CONDUCTIVITY     21.2683  21.2698  21.2712  21.2725  21.2736  21.2747  21.2756  21.4223
 PRANDTL NUMBER    0.7271   0.7269   0.7267   0.7265   0.7263   0.7261   0.7259   0.7286

 MASS FRACTIONS

 *H               0.61410  0.61800  0.62188  0.62574  0.62957  0.63339  0.63718  0.56264
 *H2              0.38590  0.38200  0.37812  0.37426  0.37043  0.36661  0.36282  0.43736

  * THERMODYNAMIC PROPERTIES FITTED TO 20000.K

 NOTE. WEIGHT FRACTION OF FUEL IN TOTAL FUELS AND OF OXIDANT IN TOTAL OXIDANTS









               THERMODYNAMIC EQUILIBRIUM PROPERTIES AT ASSIGNED

                           TEMPERATURE AND PRESSURE

 CASE =                

             REACTANT                    WT FRACTION      ENERGY      TEMP
                                          (SEE NOTE)     KJ/KG-MOL      K  
 FUEL        H2                           1.0000000         0.000      0.000
 OXIDANT     H2                           1.0000000         0.000      0.000

 O/F=    1.00000  %FUEL= 50.000000  R,EQ.RATIO= 0.000000  PHI,EQ.RATIO=-1.000000

 THERMODYNAMIC PROPERTIES

 P, BAR            31.000   31.000   31.000   31.000   31.000   31.000   31.000   31.000
 T, K             5160.00  5170.00  5180.00  5190.00  5200.00  5210.00  5220.00  5230.00
 RHO, KG/CU M    9.2973-2 9.2555-2 9.2141-2 9.1730-2 9.1323-2 9.0920-2 9.0520-2 9.0124-2
 H, KJ/KG        216647.0 217781.5 218912.7 220040.4 221164.7 222285.3 223402.1 224515.1
 U, KJ/KG        183303.9 184287.9 185268.5 186245.6 187219.3 188189.3 189155.6 190118.0
 G, KJ/KG       -441741.1-443018.1-444297.3-445578.8-446862.3-448148.1-449436.0-450726.0
 S, KJ/(KG)(K)   127.5946 127.8142 128.0328 128.2503 128.4667 128.6820 128.8962 129.1092

 M, (1/n)           1.287    1.283    1.280    1.277    1.274    1.270    1.267    1.264
 (dLV/dLP)t      -1.12278 -1.12250 -1.12221 -1.12190 -1.12158 -1.12124 -1.12089 -1.12053
 (dLV/dLT)p        2.3300   2.3245   2.3188   2.3130   2.3070   2.3009   2.2947   2.2883
 Cp, KJ/(KG)(K)  113.6114 113.2869 112.9507 112.6030 112.2441 111.8741 111.4932 111.1016
 GAMMAs            1.2285   1.2292   1.2300   1.2307   1.2315   1.2322   1.2330   1.2337
 SON VEL,M/SEC     6400.2   6416.5   6432.8   6449.2   6465.5   6481.8   6498.1   6514.3

 TRANSPORT PROPERTIES (GASES ONLY)
   CONDUCTIVITY IN UNITS OF MILLIWATTS/(CM)(K)

 VISC,MILLIPOISE  0.76119  0.76108  0.76095  0.76081  0.76066  0.76049  0.76032  0.76014

  WITH EQUILIBRIUM REACTIONS

 Cp, KJ/(KG)(K)  113.6114 113.2869 112.9507 112.6030 112.2441 111.8741 111.4932 111.1016
 CONDUCTIVITY    143.6060 143.0736 142.5281 141.9699 141.3992 140.8164 140.2218 139.6157
 PRANDTL NUMBER    0.6022   0.6026   0.6030   0.6034   0.6038   0.6042   0.6045   0.6049

  WITH FROZEN REACTIONS

 Cp, KJ/(KG)(K)   20.5065  20.5106  20.5147  20.5188  20.5227  20.5266  20.5304  20.5341
 CONDUCTIVITY     21.4265  21.4304  21.4341  21.4376  21.4408  21.4438  21.4466  21.4492
 PRANDTL NUMBER    0.7285   0.7284   0.7283   0.7282   0.7281   0.7280   0.7278   0.7277

 MASS FRACTIONS

 *H               0.56669  0.57072  0.57474  0.57874  0.58272  0.58669  0.59065  0.59458
 *H2              0.43331  0.42928  0.42526  0.42126  0.41728  0.41331  0.40935  0.40542

  * THERMODYNAMIC PROPERTIES FITTED TO 20000.K

 NOTE. WEIGHT FRACTION OF FUEL IN TOTAL FUELS AND OF OXIDANT IN TOTAL OXIDANTS









               THERMODYNAMIC EQUILIBRIUM PROPERTIES AT ASSIGNED

                           TEMPERATURE AND PRESSURE

 CASE =                

             REACTANT                    WT FRACTION      ENERGY      TEMP
                                          (SEE NOTE)     KJ/KG-MOL      K  
 FUEL        H2                           1.0000000         0.000      0.000
 OXIDANT     H2                           1.0000000         0.000      0.000

 O/F=    1.00000  %FUEL= 50.000000  R,EQ.RATIO= 0.000000  PHI,EQ.RATIO=-1.000000

 THERMODYNAMIC PROPERTIES

 P, BAR            31.000   31.000   31.000   31.000   31.000   31.000   35.000   35.000
 T, K             5240.00  5250.00  5260.00  5270.00  5280.00  5290.00  5150.00  5160.00
 RHO, KG/CU M    8.9731-2 8.9342-2 8.8957-2 8.8575-2 8.8197-2 8.7822-2 1.0704-1 1.0655-1
 H, KJ/KG        225624.1 226729.1 227829.8 228926.3 230018.5 231106.1 210142.2 211275.2
 U, KJ/KG        191076.6 192031.1 192981.5 193927.8 194869.8 195807.4 177444.2 178428.0
 G, KJ/KG       -452018.2-453312.4-454608.8-455907.2-457207.8-458510.4-436468.0-437724.6
 S, KJ/(KG)(K)   129.3210 129.5317 129.7412 129.9494 130.1565 130.3623 125.5554 125.7752

 M, (1/n)           1.261    1.258    1.255    1.252    1.249    1.246    1.310    1.306
 (dLV/dLP)t      -1.12015 -1.11976 -1.11935 -1.11893 -1.11850 -1.11806 -1.12423 -1.12406
 (dLV/dLT)p        2.2818   2.2752   2.2685   2.2617   2.2547   2.2477   2.3483   2.3439
 Cp, KJ/(KG)(K)  110.6996 110.2874 109.8651 109.4332 108.9917 108.5409 113.4137 113.1782
 GAMMAs            1.2345   1.2353   1.2360   1.2368   1.2376   1.2384   1.2262   1.2269
 SON VEL,M/SEC     6530.6   6546.8   6563.1   6579.3   6595.5   6611.7   6332.1   6348.3

 TRANSPORT PROPERTIES (GASES ONLY)
   CONDUCTIVITY IN UNITS OF MILLIWATTS/(CM)(K)

 VISC,MILLIPOISE  0.75995  0.75974  0.75953  0.75931  0.75908  0.75885  0.76881  0.76881

  WITH EQUILIBRIUM REACTIONS

 Cp, KJ/(KG)(K)  110.6996 110.2874 109.8651 109.4332 108.9917 108.5409 113.4137 113.1782
 CONDUCTIVITY    138.9985 138.3704 137.7318 137.0831 136.4245 135.7563 145.5085 145.0832
 PRANDTL NUMBER    0.6052   0.6055   0.6059   0.6062   0.6064   0.6067   0.5992   0.5997

  WITH FROZEN REACTIONS

 Cp, KJ/(KG)(K)   20.5378  20.5414  20.5449  20.5483  20.5517  20.5550  20.4958  20.5002
 CONDUCTIVITY     21.4516  21.4538  21.4559  21.4578  21.4596  21.4613  21.6217  21.6276
 PRANDTL NUMBER    0.7276   0.7274   0.7273   0.7271   0.7270   0.7268   0.7288   0.7287

 MASS FRACTIONS

 *H               0.59850  0.60240  0.60629  0.61015  0.61400  0.61782  0.53936  0.54339
 *H2              0.40150  0.39759  0.39371  0.38985  0.38600  0.38218  0.46063  0.45661

  * THERMODYNAMIC PROPERTIES FITTED TO 20000.K

 NOTE. WEIGHT FRACTION OF FUEL IN TOTAL FUELS AND OF OXIDANT IN TOTAL OXIDANTS









               THERMODYNAMIC EQUILIBRIUM PROPERTIES AT ASSIGNED

                           TEMPERATURE AND PRESSURE

 CASE =                

             REACTANT                    WT FRACTION      ENERGY      TEMP
                                          (SEE NOTE)     KJ/KG-MOL      K  
 FUEL        H2                           1.0000000         0.000      0.000
 OXIDANT     H2                           1.0000000         0.000      0.000

 O/F=    1.00000  %FUEL= 50.000000  R,EQ.RATIO= 0.000000  PHI,EQ.RATIO=-1.000000

 THERMODYNAMIC PROPERTIES

 P, BAR            35.000   35.000   35.000   35.000   35.000   35.000   35.000   35.000
 T, K             5170.00  5180.00  5190.00  5200.00  5210.00  5220.00  5230.00  5240.00
 RHO, KG/CU M    1.0607-1 1.0559-1 1.0512-1 1.0465-1 1.0418-1 1.0372-1 1.0326-1 1.0281-1
 H, KJ/KG        212405.7 213533.7 214659.1 215781.7 216901.4 218018.2 219131.8 220242.2
 U, KJ/KG        179409.3 180388.0 181363.9 182337.0 183307.2 184274.3 185238.3 186199.1
 G, KJ/KG       -438983.5-440244.5-441507.7-442773.1-444040.6-445310.3-446582.1-447856.0
 S, KJ/(KG)(K)   125.9940 126.2120 126.4291 126.6452 126.8603 127.0744 127.2875 127.4997

 M, (1/n)           1.303    1.299    1.296    1.293    1.289    1.286    1.283    1.280
 (dLV/dLP)t      -1.12388 -1.12368 -1.12347 -1.12324 -1.12299 -1.12274 -1.12246 -1.12218
 (dLV/dLT)p        2.3394   2.3347   2.3298   2.3248   2.3197   2.3144   2.3090   2.3034
 Cp, KJ/(KG)(K)  112.9308 112.6715 112.4006 112.1182 111.8244 111.5194 111.2033 110.8764
 GAMMAs            1.2276   1.2283   1.2290   1.2297   1.2304   1.2312   1.2319   1.2326
 SON VEL,M/SEC     6364.5   6380.7   6396.9   6413.1   6429.3   6445.5   6461.6   6477.8

 TRANSPORT PROPERTIES (GASES ONLY)
   CONDUCTIVITY IN UNITS OF MILLIWATTS/(CM)(K)

 VISC,MILLIPOISE  0.76879  0.76876  0.76871  0.76865  0.76858  0.76849  0.76839  0.76829

  WITH EQUILIBRIUM REACTIONS

 Cp, KJ/(KG)(K)  112.9308 112.6715 112.4006 112.1182 111.8244 111.5194 111.2033 110.8764
 CONDUCTIVITY    144.6439 144.1906 143.7237 143.2435 142.7503 142.2442 141.7256 141.1948
 PRANDTL NUMBER    0.6002   0.6007   0.6012   0.6016   0.6021   0.6025   0.6029   0.6033

  WITH FROZEN REACTIONS

 Cp, KJ/(KG)(K)   20.5046  20.5088  20.5130  20.5171  20.5212  20.5251  20.5290  20.5328
 CONDUCTIVITY     21.6333  21.6387  21.6437  21.6485  21.6530  21.6573  21.6613  21.6651
 PRANDTL NUMBER    0.7287   0.7286   0.7286   0.7285   0.7284   0.7283   0.7282   0.7281

 MASS FRACTIONS

 *H               0.54740  0.55141  0.55540  0.55938  0.56334  0.56730  0.57124  0.57516
 *H2              0.45260  0.44859  0.44460  0.44062  0.43666  0.43270  0.42876  0.42484

  * THERMODYNAMIC PROPERTIES FITTED TO 20000.K

 NOTE. WEIGHT FRACTION OF FUEL IN TOTAL FUELS AND OF OXIDANT IN TOTAL OXIDANTS









               THERMODYNAMIC EQUILIBRIUM PROPERTIES AT ASSIGNED

                           TEMPERATURE AND PRESSURE

 CASE =                

             REACTANT                    WT FRACTION      ENERGY      TEMP
                                          (SEE NOTE)     KJ/KG-MOL      K  
 FUEL        H2                           1.0000000         0.000      0.000
 OXIDANT     H2                           1.0000000         0.000      0.000

 O/F=    1.00000  %FUEL= 50.000000  R,EQ.RATIO= 0.000000  PHI,EQ.RATIO=-1.000000

 THERMODYNAMIC PROPERTIES

 P, BAR            35.000   35.000   35.000   35.000   35.000   39.000   39.000   39.000
 T, K             5250.00  5260.00  5270.00  5280.00  5290.00  5150.00  5160.00  5170.00
 RHO, KG/CU M    1.0236-1 1.0191-1 1.0147-1 1.0103-1 1.0060-1 1.2089-1 1.2034-1 1.1980-1
 H, KJ/KG        221349.3 222452.9 223553.1 224649.5 225742.3 205390.5 206515.8 207639.2
 U, KJ/KG        187156.5 188110.5 189061.0 190007.9 190951.1 173130.3 174107.9 175083.7
 G, KJ/KG       -449132.1-450410.2-451690.5-452972.8-454257.2-432953.3-434193.9-435436.7
 S, KJ/(KG)(K)   127.7107 127.9208 128.1297 128.3376 128.5443 123.9503 124.1685 124.3861

 M, (1/n)           1.277    1.273    1.270    1.267    1.264    1.327    1.324    1.320
 (dLV/dLP)t      -1.12187 -1.12156 -1.12123 -1.12089 -1.12053 -1.12482 -1.12474 -1.12464
 (dLV/dLT)p        2.2978   2.2919   2.2860   2.2799   2.2738   2.3548   2.3513   2.3477
 Cp, KJ/(KG)(K)  110.5389 110.1908 109.8325 109.4641 109.0857 112.6057 112.4360 112.2544
 GAMMAs            1.2334   1.2341   1.2348   1.2356   1.2364   1.2250   1.2256   1.2263
 SON VEL,M/SEC     6494.0   6510.1   6526.3   6542.4   6558.5   6286.3   6302.4   6318.4

 TRANSPORT PROPERTIES (GASES ONLY)
   CONDUCTIVITY IN UNITS OF MILLIWATTS/(CM)(K)

 VISC,MILLIPOISE  0.76817  0.76803  0.76789  0.76774  0.76758  0.77508  0.77517  0.77524

  WITH EQUILIBRIUM REACTIONS

 Cp, KJ/(KG)(K)  110.5389 110.1908 109.8325 109.4641 109.0857 112.6057 112.4360 112.2544
 CONDUCTIVITY    140.6520 140.0975 139.5317 138.9548 138.3671 146.2771 145.9357 145.5797
 PRANDTL NUMBER    0.6037   0.6041   0.6044   0.6048   0.6051   0.5967   0.5972   0.5978

  WITH FROZEN REACTIONS

 Cp, KJ/(KG)(K)   20.5366  20.5403  20.5439  20.5474  20.5509  20.4901  20.4947  20.4992
 CONDUCTIVITY     21.6686  21.6719  21.6751  21.6780  21.6807  21.7931  21.8008  21.8083
 PRANDTL NUMBER    0.7280   0.7279   0.7278   0.7277   0.7276   0.7287   0.7287   0.7287

 MASS FRACTIONS

 *H               0.57907  0.58297  0.58685  0.59071  0.59456  0.51875  0.52275  0.52673
 *H2              0.42093  0.41703  0.41315  0.40929  0.40544  0.48124  0.47725  0.47327

  * THERMODYNAMIC PROPERTIES FITTED TO 20000.K

 NOTE. WEIGHT FRACTION OF FUEL IN TOTAL FUELS AND OF OXIDANT IN TOTAL OXIDANTS









               THERMODYNAMIC EQUILIBRIUM PROPERTIES AT ASSIGNED

                           TEMPERATURE AND PRESSURE

 CASE =                

             REACTANT                    WT FRACTION      ENERGY      TEMP
                                          (SEE NOTE)     KJ/KG-MOL      K  
 FUEL        H2                           1.0000000         0.000      0.000
 OXIDANT     H2                           1.0000000         0.000      0.000

 O/F=    1.00000  %FUEL= 50.000000  R,EQ.RATIO= 0.000000  PHI,EQ.RATIO=-1.000000

 THERMODYNAMIC PROPERTIES

 P, BAR            39.000   39.000   39.000   39.000   39.000   39.000   39.000   39.000
 T, K             5180.00  5190.00  5200.00  5210.00  5220.00  5230.00  5240.00  5250.00
 RHO, KG/CU M    1.1925-1 1.1872-1 1.1818-1 1.1765-1 1.1713-1 1.1661-1 1.1609-1 1.1558-1
 H, KJ/KG        208760.8 209880.4 210997.9 212113.2 213226.1 214336.6 215444.5 216549.8
 U, KJ/KG        176057.3 177028.9 177998.2 178965.2 179929.7 180891.8 181851.1 182807.8
 G, KJ/KG       -436681.6-437928.8-439178.0-440429.4-441683.0-442938.7-444196.5-445456.4
 S, KJ/(KG)(K)   124.6028 124.8187 125.0338 125.2481 125.4615 125.6740 125.8857 126.0964

 M, (1/n)           1.317    1.314    1.310    1.307    1.303    1.300    1.297    1.294
 (dLV/dLP)t      -1.12453 -1.12440 -1.12425 -1.12409 -1.12392 -1.12373 -1.12352 -1.12330
 (dLV/dLT)p        2.3438   2.3399   2.3357   2.3315   2.3271   2.3225   2.3178   2.3130
 Cp, KJ/(KG)(K)  112.0611 111.8562 111.6398 111.4120 111.1729 110.9227 110.6615 110.3895
 GAMMAs            1.2270   1.2276   1.2283   1.2290   1.2297   1.2304   1.2311   1.2318
 SON VEL,M/SEC     6334.5   6350.5   6366.6   6382.7   6398.7   6414.8   6430.9   6446.9

 TRANSPORT PROPERTIES (GASES ONLY)
   CONDUCTIVITY IN UNITS OF MILLIWATTS/(CM)(K)

 VISC,MILLIPOISE  0.77530  0.77534  0.77537  0.77539  0.77539  0.77538  0.77535  0.77531

  WITH EQUILIBRIUM REACTIONS

 Cp, KJ/(KG)(K)  112.0611 111.8562 111.6398 111.4120 111.1729 110.9227 110.6615 110.3895
 CONDUCTIVITY    145.2094 144.8249 144.4266 144.0146 143.5892 143.1505 142.6989 142.2347
 PRANDTL NUMBER    0.5983   0.5988   0.5994   0.5999   0.6003   0.6008   0.6013   0.6017

  WITH FROZEN REACTIONS

 Cp, KJ/(KG)(K)   20.5036  20.5079  20.5122  20.5163  20.5204  20.5245  20.5285  20.5324
 CONDUCTIVITY     21.8153  21.8221  21.8285  21.8346  21.8403  21.8458  21.8511  21.8560
 PRANDTL NUMBER    0.7287   0.7287   0.7286   0.7286   0.7285   0.7285   0.7284   0.7284

 MASS FRACTIONS

 *H               0.53071  0.53467  0.53863  0.54258  0.54651  0.55044  0.55435  0.55826
 *H2              0.46929  0.46533  0.46137  0.45742  0.45349  0.44956  0.44565  0.44174

  * THERMODYNAMIC PROPERTIES FITTED TO 20000.K

 NOTE. WEIGHT FRACTION OF FUEL IN TOTAL FUELS AND OF OXIDANT IN TOTAL OXIDANTS









               THERMODYNAMIC EQUILIBRIUM PROPERTIES AT ASSIGNED

                           TEMPERATURE AND PRESSURE

 CASE =                

             REACTANT                    WT FRACTION      ENERGY      TEMP
                                          (SEE NOTE)     KJ/KG-MOL      K  
 FUEL        H2                           1.0000000         0.000      0.000
 OXIDANT     H2                           1.0000000         0.000      0.000

 O/F=    1.00000  %FUEL= 50.000000  R,EQ.RATIO= 0.000000  PHI,EQ.RATIO=-1.000000

 THERMODYNAMIC PROPERTIES

 P, BAR            39.000   39.000   39.000   39.000   44.000   44.000   44.000   44.000
 T, K             5260.00  5270.00  5280.00  5290.00  5150.00  5160.00  5170.00  5180.00
 RHO, KG/CU M    1.1508-1 1.1457-1 1.1407-1 1.1358-1 1.3846-1 1.3783-1 1.3720-1 1.3658-1
 H, KJ/KG        217652.3 218751.9 219848.5 220942.0 200152.5 201265.4 202377.3 203488.0
 U, KJ/KG        183761.6 184712.5 185660.3 186605.1 168374.8 169342.3 170308.4 171273.1
 G, KJ/KG       -446718.4-447982.5-449248.7-450516.9-429091.0-430313.9-431539.0-432766.2
 S, KJ/(KG)(K)   126.3062 126.5151 126.7229 126.9299 122.1832 122.3991 122.6144 122.8290

 M, (1/n)           1.290    1.287    1.284    1.281    1.347    1.344    1.340    1.337
 (dLV/dLP)t      -1.12307 -1.12282 -1.12256 -1.12228 -1.12499 -1.12500 -1.12499 -1.12497
 (dLV/dLT)p        2.3080   2.3029   2.2977   2.2923   2.3566   2.3541   2.3514   2.3486
 Cp, KJ/(KG)(K)  110.1067 109.8134 109.5097 109.1958 111.3434 111.2425 111.1301 111.0063
 GAMMAs            1.2325   1.2332   1.2339   1.2347   1.2237   1.2243   1.2249   1.2256
 SON VEL,M/SEC     6463.0   6479.0   6495.1   6511.1   6235.8   6251.7   6267.6   6283.4

 TRANSPORT PROPERTIES (GASES ONLY)
   CONDUCTIVITY IN UNITS OF MILLIWATTS/(CM)(K)

 VISC,MILLIPOISE  0.77526  0.77520  0.77512  0.77503  0.78155  0.78174  0.78193  0.78209

  WITH EQUILIBRIUM REACTIONS

 Cp, KJ/(KG)(K)  110.1067 109.8134 109.5097 109.1958 111.3434 111.2425 111.1301 111.0063
 CONDUCTIVITY    141.7579 141.2690 140.7681 140.2556 146.6273 146.3780 146.1139 145.8352
 PRANDTL NUMBER    0.6022   0.6026   0.6030   0.6034   0.5935   0.5941   0.5947   0.5953

  WITH FROZEN REACTIONS

 Cp, KJ/(KG)(K)   20.5362  20.5399  20.5436  20.5472  20.4839  20.4886  20.4932  20.4978
 CONDUCTIVITY     21.8607  21.8651  21.8693  21.8733  21.9758  21.9857  21.9953  22.0045
 PRANDTL NUMBER    0.7283   0.7282   0.7281   0.7280   0.7285   0.7285   0.7285   0.7285

 MASS FRACTIONS

 *H               0.56215  0.56603  0.56989  0.57374  0.49603  0.49997  0.50391  0.50784
 *H2              0.43785  0.43397  0.43011  0.42626  0.50396  0.50003  0.49609  0.49216

  * THERMODYNAMIC PROPERTIES FITTED TO 20000.K

 NOTE. WEIGHT FRACTION OF FUEL IN TOTAL FUELS AND OF OXIDANT IN TOTAL OXIDANTS









               THERMODYNAMIC EQUILIBRIUM PROPERTIES AT ASSIGNED

                           TEMPERATURE AND PRESSURE

 CASE =                

             REACTANT                    WT FRACTION      ENERGY      TEMP
                                          (SEE NOTE)     KJ/KG-MOL      K  
 FUEL        H2                           1.0000000         0.000      0.000
 OXIDANT     H2                           1.0000000         0.000      0.000

 O/F=    1.00000  %FUEL= 50.000000  R,EQ.RATIO= 0.000000  PHI,EQ.RATIO=-1.000000

 THERMODYNAMIC PROPERTIES

 P, BAR            44.000   44.000   44.000   44.000   44.000   44.000   44.000   44.000
 T, K             5190.00  5200.00  5210.00  5220.00  5230.00  5240.00  5250.00  5260.00
 RHO, KG/CU M    1.3597-1 1.3535-1 1.3475-1 1.3414-1 1.3355-1 1.3295-1 1.3236-1 1.3178-1
 H, KJ/KG        204597.4 205705.3 206811.8 207916.7 209019.7 210121.0 211220.3 212317.5
 U, KJ/KG        172236.3 173198.0 174157.9 175116.1 176072.3 177026.6 177978.8 178928.7
 G, KJ/KG       -433995.6-435227.1-436460.7-437696.4-438934.3-440174.3-441416.4-442660.5
 S, KJ/(KG)(K)   123.0430 123.2562 123.4688 123.6807 123.8918 124.1022 124.3117 124.5205

 M, (1/n)           1.333    1.330    1.327    1.323    1.320    1.316    1.313    1.310
 (dLV/dLP)t      -1.12493 -1.12488 -1.12481 -1.12472 -1.12463 -1.12451 -1.12438 -1.12424
 (dLV/dLT)p        2.3456   2.3424   2.3391   2.3357   2.3321   2.3283   2.3245   2.3204
 Cp, KJ/(KG)(K)  110.8712 110.7248 110.5672 110.3985 110.2187 110.0280 109.8265 109.6143
 GAMMAs            1.2262   1.2269   1.2275   1.2282   1.2288   1.2295   1.2302   1.2309
 SON VEL,M/SEC     6299.3   6315.2   6331.1   6347.0   6363.0   6378.9   6394.8   6410.7

 TRANSPORT PROPERTIES (GASES ONLY)
   CONDUCTIVITY IN UNITS OF MILLIWATTS/(CM)(K)

 VISC,MILLIPOISE  0.78224  0.78237  0.78249  0.78260  0.78268  0.78276  0.78282  0.78286

  WITH EQUILIBRIUM REACTIONS

 Cp, KJ/(KG)(K)  110.8712 110.7248 110.5672 110.3985 110.2187 110.0280 109.8265 109.6143
 CONDUCTIVITY    145.5421 145.2348 144.9134 144.5782 144.2293 143.8669 143.4912 143.1025
 PRANDTL NUMBER    0.5959   0.5965   0.5970   0.5976   0.5981   0.5986   0.5992   0.5997

  WITH FROZEN REACTIONS

 Cp, KJ/(KG)(K)   20.5023  20.5067  20.5110  20.5153  20.5195  20.5236  20.5276  20.5316
 CONDUCTIVITY     22.0133  22.0218  22.0299  22.0376  22.0450  22.0521  22.0589  22.0653
 PRANDTL NUMBER    0.7285   0.7285   0.7285   0.7285   0.7285   0.7285   0.7285   0.7284

 MASS FRACTIONS

 *H               0.51176  0.51567  0.51958  0.52349  0.52738  0.53127  0.53514  0.53901
 *H2              0.48824  0.48433  0.48042  0.47651  0.47262  0.46873  0.46486  0.46099

  * THERMODYNAMIC PROPERTIES FITTED TO 20000.K

 NOTE. WEIGHT FRACTION OF FUEL IN TOTAL FUELS AND OF OXIDANT IN TOTAL OXIDANTS









               THERMODYNAMIC EQUILIBRIUM PROPERTIES AT ASSIGNED

                           TEMPERATURE AND PRESSURE

 CASE =                

             REACTANT                    WT FRACTION      ENERGY      TEMP
                                          (SEE NOTE)     KJ/KG-MOL      K  
 FUEL        H2                           1.0000000         0.000      0.000
 OXIDANT     H2                           1.0000000         0.000      0.000

 O/F=    1.00000  %FUEL= 50.000000  R,EQ.RATIO= 0.000000  PHI,EQ.RATIO=-1.000000

 THERMODYNAMIC PROPERTIES

 P, BAR            44.000   44.000   44.000   49.000   49.000   49.000   49.000   49.000
 T, K             5270.00  5280.00  5290.00  5150.00  5160.00  5170.00  5180.00  5190.00
 RHO, KG/CU M    1.3120-1 1.3063-1 1.3006-1 1.5628-1 1.5557-1 1.5487-1 1.5416-1 1.5347-1
 H, KJ/KG        213412.5 214505.3 215595.7 195547.4 196646.4 197744.9 198842.9 199940.1
 U, KJ/KG        179876.4 180821.7 181764.6 164194.0 165149.6 166104.5 167058.5 168011.5
 G, KJ/KG       -443906.8-445155.1-446405.5-425693.7-426901.0-428110.5-429322.1-430535.9
 S, KJ/(KG)(K)   124.7285 124.9357 125.1420 120.6293 120.8425 121.0552 121.2674 121.4790

 M, (1/n)           1.307    1.303    1.300    1.366    1.362    1.359    1.355    1.352
 (dLV/dLP)t      -1.12408 -1.12391 -1.12372 -1.12471 -1.12480 -1.12487 -1.12492 -1.12496
 (dLV/dLT)p        2.3163   2.3120   2.3075   2.3536   2.3519   2.3501   2.3481   2.3460
 Cp, KJ/(KG)(K)  109.3915 109.1582 108.9145 109.9247 109.8806 109.8255 109.7595 109.6824
 GAMMAs            1.2316   1.2322   1.2329   1.2226   1.2232   1.2238   1.2245   1.2251
 SON VEL,M/SEC     6426.6   6442.5   6458.5   6191.4   6207.1   6222.8   6238.5   6254.2

 TRANSPORT PROPERTIES (GASES ONLY)
   CONDUCTIVITY IN UNITS OF MILLIWATTS/(CM)(K)

 VISC,MILLIPOISE  0.78289  0.78291  0.78292  0.78682  0.78712  0.78740  0.78767  0.78792

  WITH EQUILIBRIUM REACTIONS

 Cp, KJ/(KG)(K)  109.3915 109.1582 108.9145 109.9247 109.8806 109.8255 109.7595 109.6824
 CONDUCTIVITY    142.7009 142.2867 141.8601 146.5038 146.3343 146.1501 145.9513 145.7381
 PRANDTL NUMBER    0.6002   0.6006   0.6011   0.5904   0.5910   0.5917   0.5923   0.5930

  WITH FROZEN REACTIONS

 Cp, KJ/(KG)(K)   20.5355  20.5394  20.5431  20.4784  20.4832  20.4880  20.4927  20.4973
 CONDUCTIVITY     22.0715  22.0773  22.0829  22.1303  22.1424  22.1541  22.1654  22.1763
 PRANDTL NUMBER    0.7284   0.7284   0.7283   0.7281   0.7281   0.7282   0.7282   0.7283

 MASS FRACTIONS

 *H               0.54287  0.54672  0.55056  0.47606  0.47994  0.48381  0.48769  0.49156
 *H2              0.45713  0.45328  0.44944  0.52394  0.52006  0.51618  0.51231  0.50844

  * THERMODYNAMIC PROPERTIES FITTED TO 20000.K

 NOTE. WEIGHT FRACTION OF FUEL IN TOTAL FUELS AND OF OXIDANT IN TOTAL OXIDANTS









               THERMODYNAMIC EQUILIBRIUM PROPERTIES AT ASSIGNED

                           TEMPERATURE AND PRESSURE

 CASE =                

             REACTANT                    WT FRACTION      ENERGY      TEMP
                                          (SEE NOTE)     KJ/KG-MOL      K  
 FUEL        H2                           1.0000000         0.000      0.000
 OXIDANT     H2                           1.0000000         0.000      0.000

 O/F=    1.00000  %FUEL= 50.000000  R,EQ.RATIO= 0.000000  PHI,EQ.RATIO=-1.000000

 THERMODYNAMIC PROPERTIES

 P, BAR            49.000   49.000   49.000   49.000   49.000   49.000   49.000   49.000
 T, K             5200.00  5210.00  5220.00  5230.00  5240.00  5250.00  5260.00  5270.00
 RHO, KG/CU M    1.5278-1 1.5209-1 1.5141-1 1.5073-1 1.5006-1 1.4940-1 1.4874-1 1.4808-1
 H, KJ/KG        201036.5 202131.9 203226.4 204319.6 205411.6 206502.3 207591.5 208679.1
 U, KJ/KG        168963.4 169914.2 170863.8 171811.9 172758.7 173703.9 174647.4 175589.2
 G, KJ/KG       -431751.7-432969.7-434189.7-435411.9-436636.1-437862.4-439090.8-440321.3
 S, KJ/(KG)(K)   121.6900 121.9005 122.1104 122.3196 122.5282 122.7361 122.9434 123.1500

 M, (1/n)           1.348    1.345    1.341    1.338    1.334    1.331    1.328    1.324
 (dLV/dLP)t      -1.12499 -1.12500 -1.12500 -1.12498 -1.12494 -1.12489 -1.12483 -1.12475
 (dLV/dLT)p        2.3437   2.3412   2.3386   2.3358   2.3329   2.3299   2.3267   2.3234
 Cp, KJ/(KG)(K)  109.5945 109.4957 109.3861 109.2657 109.1346 108.9929 108.8407 108.6780
 GAMMAs            1.2257   1.2263   1.2270   1.2276   1.2282   1.2289   1.2295   1.2302
 SON VEL,M/SEC     6269.9   6285.6   6301.4   6317.1   6332.9   6348.7   6364.4   6380.2

 TRANSPORT PROPERTIES (GASES ONLY)
   CONDUCTIVITY IN UNITS OF MILLIWATTS/(CM)(K)

 VISC,MILLIPOISE  0.78815  0.78836  0.78856  0.78875  0.78892  0.78907  0.78921  0.78933

  WITH EQUILIBRIUM REACTIONS

 Cp, KJ/(KG)(K)  109.5945 109.4957 109.3861 109.2657 109.1346 108.9929 108.8407 108.6780
 CONDUCTIVITY    145.5105 145.2688 145.0130 144.7434 144.4601 144.1632 143.8529 143.5294
 PRANDTL NUMBER    0.5936   0.5942   0.5948   0.5954   0.5960   0.5966   0.5971   0.5977

  WITH FROZEN REACTIONS

 Cp, KJ/(KG)(K)   20.5018  20.5063  20.5107  20.5150  20.5193  20.5234  20.5276  20.5316
 CONDUCTIVITY     22.1867  22.1968  22.2064  22.2157  22.2247  22.2332  22.2415  22.2493
 PRANDTL NUMBER    0.7283   0.7283   0.7283   0.7284   0.7284   0.7284   0.7284   0.7284

 MASS FRACTIONS

 *H               0.49542  0.49929  0.50314  0.50699  0.51084  0.51468  0.51851  0.52234
 *H2              0.50458  0.50071  0.49686  0.49300  0.48916  0.48532  0.48148  0.47766

  * THERMODYNAMIC PROPERTIES FITTED TO 20000.K

 NOTE. WEIGHT FRACTION OF FUEL IN TOTAL FUELS AND OF OXIDANT IN TOTAL OXIDANTS









               THERMODYNAMIC EQUILIBRIUM PROPERTIES AT ASSIGNED

                           TEMPERATURE AND PRESSURE

 CASE =                

             REACTANT                    WT FRACTION      ENERGY      TEMP
                                          (SEE NOTE)     KJ/KG-MOL      K  
 FUEL        H2                           1.0000000         0.000      0.000
 OXIDANT     H2                           1.0000000         0.000      0.000

 O/F=    1.00000  %FUEL= 50.000000  R,EQ.RATIO= 0.000000  PHI,EQ.RATIO=-1.000000

 THERMODYNAMIC PROPERTIES

 P, BAR            49.000   49.000   54.000   54.000   54.000   54.000   54.000   54.000
 T, K             5280.00  5290.00  5150.00  5160.00  5170.00  5180.00  5190.00  5200.00
 RHO, KG/CU M    1.4743-1 1.4679-1 1.7433-1 1.7353-1 1.7275-1 1.7197-1 1.7119-1 1.7042-1
 H, KJ/KG        209765.0 210849.1 191457.2 192541.6 193625.9 194710.1 195794.1 196877.7
 U, KJ/KG        176529.2 177467.2 160480.7 161423.7 162366.4 163308.7 164250.4 165191.5
 G, KJ/KG       -441553.8-442788.4-422665.6-423859.1-425054.8-426252.5-427452.3-428654.2
 S, KJ/(KG)(K)   123.3558 123.5610 119.2472 119.4575 119.6674 119.8769 120.0860 120.2946

 M, (1/n)           1.321    1.318    1.382    1.379    1.375    1.372    1.368    1.364
 (dLV/dLP)t      -1.12466 -1.12455 -1.12413 -1.12428 -1.12442 -1.12454 -1.12465 -1.12474
 (dLV/dLT)p        2.3199   2.3163   2.3473   2.3464   2.3452   2.3440   2.3426   2.3410
 Cp, KJ/(KG)(K)  108.5049 108.3215 108.4322 108.4353 108.4279 108.4100 108.3816 108.3427
 GAMMAs            1.2309   1.2315   1.2218   1.2223   1.2229   1.2235   1.2241   1.2247
 SON VEL,M/SEC     6396.0   6411.8   6151.9   6167.4   6182.9   6198.4   6213.9   6229.5

 TRANSPORT PROPERTIES (GASES ONLY)
   CONDUCTIVITY IN UNITS OF MILLIWATTS/(CM)(K)

 VISC,MILLIPOISE  0.78944  0.78953  0.79118  0.79157  0.79194  0.79230  0.79264  0.79296

  WITH EQUILIBRIUM REACTIONS

 Cp, KJ/(KG)(K)  108.5049 108.3215 108.4322 108.4353 108.4279 108.4100 108.3816 108.3427
 CONDUCTIVITY    143.1930 142.8436 146.0552 145.9551 145.8404 145.7114 145.5680 145.4104
 PRANDTL NUMBER    0.5982   0.5987   0.5874   0.5881   0.5888   0.5895   0.5902   0.5908

  WITH FROZEN REACTIONS

 Cp, KJ/(KG)(K)   20.5356  20.5395  20.4735  20.4785  20.4833  20.4881  20.4928  20.4975
 CONDUCTIVITY     22.2569  22.2641  22.2622  22.2764  22.2901  22.3034  22.3162  22.3286
 PRANDTL NUMBER    0.7284   0.7284   0.7276   0.7277   0.7277   0.7278   0.7279   0.7279

 MASS FRACTIONS

 *H               0.52616  0.52997  0.45832  0.46213  0.46595  0.46976  0.47358  0.47739
 *H2              0.47384  0.47003  0.54168  0.53787  0.53405  0.53024  0.52642  0.52261

  * THERMODYNAMIC PROPERTIES FITTED TO 20000.K

 NOTE. WEIGHT FRACTION OF FUEL IN TOTAL FUELS AND OF OXIDANT IN TOTAL OXIDANTS









               THERMODYNAMIC EQUILIBRIUM PROPERTIES AT ASSIGNED

                           TEMPERATURE AND PRESSURE

 CASE =                

             REACTANT                    WT FRACTION      ENERGY      TEMP
                                          (SEE NOTE)     KJ/KG-MOL      K  
 FUEL        H2                           1.0000000         0.000      0.000
 OXIDANT     H2                           1.0000000         0.000      0.000

 O/F=    1.00000  %FUEL= 50.000000  R,EQ.RATIO= 0.000000  PHI,EQ.RATIO=-1.000000

 THERMODYNAMIC PROPERTIES

 P, BAR            54.000   54.000   54.000   54.000   54.000   54.000   54.000   54.000
 T, K             5210.00  5220.00  5230.00  5240.00  5250.00  5260.00  5270.00  5280.00
 RHO, KG/CU M    1.6966-1 1.6890-1 1.6814-1 1.6740-1 1.6665-1 1.6592-1 1.6518-1 1.6446-1
 H, KJ/KG        197960.9 199043.5 200125.5 201206.8 202287.1 203366.6 204444.9 205522.1
 U, KJ/KG        166131.9 167071.5 168010.2 168947.9 169884.6 170820.0 171754.2 172687.0
 G, KJ/KG       -429858.2-431064.3-432272.4-433482.6-434694.9-435909.2-437125.6-438344.0
 S, KJ/(KG)(K)   120.5027 120.7103 120.9174 121.1239 121.3299 121.5353 121.7401 121.9443

 M, (1/n)           1.361    1.357    1.354    1.351    1.347    1.344    1.340    1.337
 (dLV/dLP)t      -1.12482 -1.12489 -1.12494 -1.12497 -1.12499 -1.12500 -1.12499 -1.12497
 (dLV/dLT)p        2.3393   2.3374   2.3354   2.3333   2.3310   2.3285   2.3259   2.3232
 Cp, KJ/(KG)(K)  108.2934 108.2336 108.1635 108.0830 107.9921 107.8910 107.7797 107.6582
 GAMMAs            1.2253   1.2259   1.2266   1.2272   1.2278   1.2284   1.2291   1.2297
 SON VEL,M/SEC     6245.1   6260.6   6276.2   6291.8   6307.4   6323.1   6338.7   6354.3

 TRANSPORT PROPERTIES (GASES ONLY)
   CONDUCTIVITY IN UNITS OF MILLIWATTS/(CM)(K)

 VISC,MILLIPOISE  0.79327  0.79356  0.79383  0.79408  0.79432  0.79455  0.79476  0.79495

  WITH EQUILIBRIUM REACTIONS

 Cp, KJ/(KG)(K)  108.2934 108.2336 108.1635 108.0830 107.9921 107.8910 107.7797 107.6582
 CONDUCTIVITY    145.2387 145.0530 144.8534 144.6401 144.4131 144.1727 143.9189 143.6519
 PRANDTL NUMBER    0.5915   0.5921   0.5928   0.5934   0.5940   0.5946   0.5952   0.5958

  WITH FROZEN REACTIONS

 Cp, KJ/(KG)(K)   20.5021  20.5066  20.5110  20.5154  20.5197  20.5239  20.5281  20.5322
 CONDUCTIVITY     22.3406  22.3521  22.3633  22.3740  22.3844  22.3944  22.4040  22.4132
 PRANDTL NUMBER    0.7280   0.7280   0.7281   0.7281   0.7282   0.7282   0.7282   0.7282

 MASS FRACTIONS

 *H               0.48120  0.48500  0.48880  0.49260  0.49640  0.50019  0.50398  0.50776
 *H2              0.51880  0.51500  0.51119  0.50739  0.50360  0.49981  0.49602  0.49224

  * THERMODYNAMIC PROPERTIES FITTED TO 20000.K

 NOTE. WEIGHT FRACTION OF FUEL IN TOTAL FUELS AND OF OXIDANT IN TOTAL OXIDANTS









               THERMODYNAMIC EQUILIBRIUM PROPERTIES AT ASSIGNED

                           TEMPERATURE AND PRESSURE

 CASE =                

             REACTANT                    WT FRACTION      ENERGY      TEMP
                                          (SEE NOTE)     KJ/KG-MOL      K  
 FUEL        H2                           1.0000000         0.000      0.000
 OXIDANT     H2                           1.0000000         0.000      0.000

 O/F=    1.00000  %FUEL= 50.000000  R,EQ.RATIO= 0.000000  PHI,EQ.RATIO=-1.000000

 THERMODYNAMIC PROPERTIES

 P, BAR            54.000
 T, K             5290.00
 RHO, KG/CU M    1.6374-1
 H, KJ/KG        206598.1
 U, KJ/KG        173618.4
 G, KJ/KG       -439564.5
 S, KJ/(KG)(K)   122.1479

 M, (1/n)           1.334
 (dLV/dLP)t      -1.12493
 (dLV/dLT)p        2.3203
 Cp, KJ/(KG)(K)  107.5267
 GAMMAs            1.2303
 SON VEL,M/SEC     6370.0

 TRANSPORT PROPERTIES (GASES ONLY)
   CONDUCTIVITY IN UNITS OF MILLIWATTS/(CM)(K)

 VISC,MILLIPOISE  0.79513

  WITH EQUILIBRIUM REACTIONS

 Cp, KJ/(KG)(K)  107.5267
 CONDUCTIVITY    143.3719
 PRANDTL NUMBER    0.5963

  WITH FROZEN REACTIONS

 Cp, KJ/(KG)(K)   20.5362
 CONDUCTIVITY     22.4221
 PRANDTL NUMBER    0.7283

 MASS FRACTIONS

 *H               0.51153
 *H2              0.48846

  * THERMODYNAMIC PROPERTIES FITTED TO 20000.K

 NOTE. WEIGHT FRACTION OF FUEL IN TOTAL FUELS AND OF OXIDANT IN TOTAL OXIDANTS



  
