
 *******************************************************************************

         NASA-GLENN CHEMICAL EQUILIBRIUM PROGRAM CEA2, MAY 21, 2004
                   BY  BONNIE MCBRIDE AND SANFORD GORDON
      REFS: NASA RP-1311, PART I, 1994 AND NASA RP-1311, PART II, 1996

 *******************************************************************************



  prob tp ions
  p,bar= 280.0,310.0,350.0,390.0,440.0,490.0,540.0,600.0,670.0,740.0,825.0,910.0
  t,k= 7850,7860,7870,7880,7890,7900,7910,7920,7930,7940,7950,7960,7970,7980,7990
  
  
  reac
  fuel H2                wt%=100.0000
  oxid H2                wt%=100.0000
  
  output short
  
  output massf
  
  output siunits
  
  output transport
  
 end





               THERMODYNAMIC EQUILIBRIUM PROPERTIES AT ASSIGNED

                           TEMPERATURE AND PRESSURE

 CASE =                

             REACTANT                    WT FRACTION      ENERGY      TEMP
                                          (SEE NOTE)     KJ/KG-MOL      K  
 FUEL        H2                           1.0000000         0.000      0.000
 OXIDANT     H2                           1.0000000         0.000      0.000

 O/F=    1.00000  %FUEL= 50.000000  R,EQ.RATIO= 0.000000  PHI,EQ.RATIO=-1.000000

 THERMODYNAMIC PROPERTIES

 P, BAR            280.00   280.00   280.00   280.00   280.00   280.00   280.00   280.00
 T, K             7850.00  7860.00  7870.00  7880.00  7890.00  7900.00  7910.00  7920.00
 RHO, KG/CU M    4.7367-1 4.7276-1 4.7185-1 4.7095-1 4.7005-1 4.6916-1 4.6828-1 4.6740-1
 H, KJ/KG        332043.6 332525.2 333004.8 333482.6 333958.3 334432.2 334904.1 335374.1
 U, KJ/KG        272930.2 273298.0 273664.0 274028.2 274390.7 274751.4 275110.4 275467.6
 G, KJ/KG       -692537.6-693843.1-695149.3-696456.0-697763.3-699071.3-700379.8-701688.9
 S, KJ/(KG)(K)   130.5199 130.5812 130.6422 130.7029 130.7632 130.8232 130.8829 130.9423

 M, (1/n)           1.104    1.103    1.103    1.102    1.101    1.101    1.100    1.099
 (dLV/dLP)t      -1.07207 -1.07168 -1.07130 -1.07091 -1.07053 -1.07015 -1.06977 -1.06940
 (dLV/dLT)p        1.5130   1.5096   1.5063   1.5029   1.4996   1.4963   1.4930   1.4897
 Cp, KJ/(KG)(K)   48.2601  48.0634  47.8678  47.6735  47.4804  47.2884  47.0977  46.9081
 GAMMAs            1.3989   1.3998   1.4007   1.4017   1.4026   1.4035   1.4045   1.4054
 SON VEL,M/SEC     9093.5   9105.3   9117.1   9128.8   9140.6   9152.3   9164.0   9175.7

 TRANSPORT PROPERTIES (GASES ONLY)
   CONDUCTIVITY IN UNITS OF MILLIWATTS/(CM)(K)

 VISC,MILLIPOISE  0.95109  0.95137  0.95165  0.95193  0.95222  0.95252  0.95281  0.95311

  WITH EQUILIBRIUM REACTIONS

 Cp, KJ/(KG)(K)   48.2601  48.0634  47.8678  47.6735  47.4804  47.2884  47.0977  46.9081
 CONDUCTIVITY     72.8827  72.5953  72.3096  72.0258  71.7439  71.4638  71.1855  70.9091
 PRANDTL NUMBER    0.6298   0.6299   0.6300   0.6301   0.6302   0.6303   0.6304   0.6305

  WITH FROZEN REACTIONS

 Cp, KJ/(KG)(K)   20.6451  20.6442  20.6433  20.6424  20.6415  20.6406  20.6398  20.6389
 CONDUCTIVITY     27.7917  27.8069  27.8221  27.8375  27.8529  27.8685  27.8841  27.8998
 PRANDTL NUMBER    0.7065   0.7063   0.7061   0.7059   0.7057   0.7055   0.7053   0.7051

 MASS FRACTIONS

 *H               0.82546  0.82665  0.82782  0.82899  0.83015  0.83130  0.83244  0.83357
 *H+              0.00009  0.00010  0.00010  0.00010  0.00010  0.00010  0.00010  0.00011
 *H-              0.00001  0.00001  0.00001  0.00001  0.00001  0.00001  0.00001  0.00001
 *H2              0.17441  0.17322  0.17204  0.17088  0.16972  0.16856  0.16742  0.16628
 *H2+             0.00002  0.00002  0.00002  0.00002  0.00002  0.00002  0.00002  0.00002

  * THERMODYNAMIC PROPERTIES FITTED TO 20000.K

 NOTE. WEIGHT FRACTION OF FUEL IN TOTAL FUELS AND OF OXIDANT IN TOTAL OXIDANTS









               THERMODYNAMIC EQUILIBRIUM PROPERTIES AT ASSIGNED

                           TEMPERATURE AND PRESSURE

 CASE =                

             REACTANT                    WT FRACTION      ENERGY      TEMP
                                          (SEE NOTE)     KJ/KG-MOL      K  
 FUEL        H2                           1.0000000         0.000      0.000
 OXIDANT     H2                           1.0000000         0.000      0.000

 O/F=    1.00000  %FUEL= 50.000000  R,EQ.RATIO= 0.000000  PHI,EQ.RATIO=-1.000000

 THERMODYNAMIC PROPERTIES

 P, BAR            280.00   280.00   280.00   280.00   280.00   280.00   280.00   310.00
 T, K             7930.00  7940.00  7950.00  7960.00  7970.00  7980.00  7990.00  7850.00
 RHO, KG/CU M    4.6652-1 4.6565-1 4.6478-1 4.6392-1 4.6306-1 4.6220-1 4.6135-1 5.2839-1
 H, KJ/KG        335842.3 336308.5 336772.9 337235.5 337696.2 338155.0 338612.1 328875.7
 U, KJ/KG        275823.2 276177.0 276529.2 276879.7 277228.5 277575.6 277921.1 270207.5
 G, KJ/KG       -702998.6-704308.9-705619.8-706931.3-708243.4-709556.0-710869.2-686543.4
 S, KJ/(KG)(K)   131.0014 131.0601 131.1186 131.1767 131.2346 131.2921 131.3493 129.3528

 M, (1/n)           1.099    1.098    1.097    1.097    1.096    1.095    1.095    1.113
 (dLV/dLP)t      -1.06902 -1.06865 -1.06827 -1.06790 -1.06753 -1.06716 -1.06680 -1.07644
 (dLV/dLT)p        1.4865   1.4833   1.4801   1.4769   1.4737   1.4705   1.4674   1.5440
 Cp, KJ/(KG)(K)   46.7197  46.5326  46.3466  46.1618  45.9782  45.7959  45.6147  49.6947
 GAMMAs            1.4064   1.4073   1.4082   1.4092   1.4101   1.4111   1.4120   1.3930
 SON VEL,M/SEC     9187.4   9199.1   9210.7   9222.4   9234.0   9245.6   9257.1   9040.0

 TRANSPORT PROPERTIES (GASES ONLY)
   CONDUCTIVITY IN UNITS OF MILLIWATTS/(CM)(K)

 VISC,MILLIPOISE  0.95341  0.95372  0.95402  0.95434  0.95465  0.95497  0.95529  0.96095

  WITH EQUILIBRIUM REACTIONS

 Cp, KJ/(KG)(K)   46.7197  46.5326  46.3466  46.1618  45.9782  45.7959  45.6147  49.6947
 CONDUCTIVITY     70.6345  70.3618  70.0909  69.8218  69.5546  69.2892  69.0256  75.8183
 PRANDTL NUMBER    0.6306   0.6307   0.6308   0.6309   0.6311   0.6312   0.6313   0.6298

  WITH FROZEN REACTIONS

 Cp, KJ/(KG)(K)   20.6380  20.6372  20.6363  20.6354  20.6346  20.6338  20.6329  20.6455
 CONDUCTIVITY     27.9157  27.9316  27.9476  27.9637  27.9798  27.9961  28.0125  27.9933
 PRANDTL NUMBER    0.7049   0.7047   0.7044   0.7042   0.7040   0.7038   0.7036   0.7087

 MASS FRACTIONS

 *H               0.83470  0.83582  0.83692  0.83802  0.83912  0.84020  0.84128  0.81173
 *H+              0.00011  0.00011  0.00011  0.00011  0.00011  0.00012  0.00012  0.00009
 *H-              0.00001  0.00001  0.00001  0.00001  0.00001  0.00001  0.00001  0.00001
 *H2              0.16516  0.16404  0.16293  0.16183  0.16073  0.15965  0.15857  0.18814
 *H2+             0.00002  0.00003  0.00003  0.00003  0.00003  0.00003  0.00003  0.00002

  * THERMODYNAMIC PROPERTIES FITTED TO 20000.K

 NOTE. WEIGHT FRACTION OF FUEL IN TOTAL FUELS AND OF OXIDANT IN TOTAL OXIDANTS









               THERMODYNAMIC EQUILIBRIUM PROPERTIES AT ASSIGNED

                           TEMPERATURE AND PRESSURE

 CASE =                

             REACTANT                    WT FRACTION      ENERGY      TEMP
                                          (SEE NOTE)     KJ/KG-MOL      K  
 FUEL        H2                           1.0000000         0.000      0.000
 OXIDANT     H2                           1.0000000         0.000      0.000

 O/F=    1.00000  %FUEL= 50.000000  R,EQ.RATIO= 0.000000  PHI,EQ.RATIO=-1.000000

 THERMODYNAMIC PROPERTIES

 P, BAR            310.00   310.00   310.00   310.00   310.00   310.00   310.00   310.00
 T, K             7860.00  7870.00  7880.00  7890.00  7900.00  7910.00  7920.00  7930.00
 RHO, KG/CU M    5.2736-1 5.2633-1 5.2530-1 5.2428-1 5.2327-1 5.2226-1 5.2126-1 5.2026-1
 H, KJ/KG        329371.7 329865.7 330357.7 330847.7 331335.8 331821.9 332306.2 332788.5
 U, KJ/KG        270588.1 270967.0 271344.0 271719.3 272092.8 272464.5 272834.5 273202.7
 G, KJ/KG       -687837.2-689131.7-690426.8-691722.5-693018.9-694315.8-695613.4-696911.6
 S, KJ/(KG)(K)   129.4159 129.4787 129.5412 129.6033 129.6651 129.7266 129.7878 129.8487

 M, (1/n)           1.112    1.111    1.110    1.109    1.109    1.108    1.107    1.107
 (dLV/dLP)t      -1.07605 -1.07566 -1.07528 -1.07489 -1.07451 -1.07412 -1.07374 -1.07336
 (dLV/dLT)p        1.5406   1.5372   1.5338   1.5304   1.5270   1.5236   1.5203   1.5170
 Cp, KJ/(KG)(K)   49.4960  49.2984  49.1019  48.9064  48.7120  48.5187  48.3265  48.1354
 GAMMAs            1.3939   1.3948   1.3957   1.3966   1.3975   1.3985   1.3994   1.4003
 SON VEL,M/SEC     9051.9   9063.7   9075.6   9087.4   9099.2   9110.9   9122.7   9134.4

 TRANSPORT PROPERTIES (GASES ONLY)
   CONDUCTIVITY IN UNITS OF MILLIWATTS/(CM)(K)

 VISC,MILLIPOISE  0.96121  0.96147  0.96173  0.96200  0.96227  0.96255  0.96282  0.96310

  WITH EQUILIBRIUM REACTIONS

 Cp, KJ/(KG)(K)   49.4960  49.2984  49.1019  48.9064  48.7120  48.5187  48.3265  48.1354
 CONDUCTIVITY     75.5242  75.2318  74.9411  74.6521  74.3648  74.0793  73.7954  73.5133
 PRANDTL NUMBER    0.6299   0.6300   0.6301   0.6302   0.6303   0.6304   0.6305   0.6306

  WITH FROZEN REACTIONS

 Cp, KJ/(KG)(K)   20.6445  20.6436  20.6426  20.6417  20.6407  20.6398  20.6388  20.6379
 CONDUCTIVITY     28.0077  28.0222  28.0368  28.0515  28.0663  28.0812  28.0962  28.1112
 PRANDTL NUMBER    0.7085   0.7083   0.7081   0.7079   0.7077   0.7075   0.7073   0.7071

 MASS FRACTIONS

 *H               0.81298  0.81422  0.81545  0.81667  0.81788  0.81909  0.82028  0.82147
 *H+              0.00009  0.00009  0.00009  0.00009  0.00010  0.00010  0.00010  0.00010
 *H-              0.00001  0.00001  0.00001  0.00001  0.00001  0.00001  0.00001  0.00001
 *H2              0.18689  0.18565  0.18442  0.18320  0.18198  0.18078  0.17958  0.17839
 *H2+             0.00002  0.00002  0.00002  0.00002  0.00002  0.00003  0.00003  0.00003

  * THERMODYNAMIC PROPERTIES FITTED TO 20000.K

 NOTE. WEIGHT FRACTION OF FUEL IN TOTAL FUELS AND OF OXIDANT IN TOTAL OXIDANTS









               THERMODYNAMIC EQUILIBRIUM PROPERTIES AT ASSIGNED

                           TEMPERATURE AND PRESSURE

 CASE =                

             REACTANT                    WT FRACTION      ENERGY      TEMP
                                          (SEE NOTE)     KJ/KG-MOL      K  
 FUEL        H2                           1.0000000         0.000      0.000
 OXIDANT     H2                           1.0000000         0.000      0.000

 O/F=    1.00000  %FUEL= 50.000000  R,EQ.RATIO= 0.000000  PHI,EQ.RATIO=-1.000000

 THERMODYNAMIC PROPERTIES

 P, BAR            310.00   310.00   310.00   310.00   310.00   310.00   350.00   350.00
 T, K             7940.00  7950.00  7960.00  7970.00  7980.00  7990.00  7850.00  7860.00
 RHO, KG/CU M    5.1927-1 5.1828-1 5.1730-1 5.1632-1 5.1535-1 5.1438-1 6.0233-1 6.0112-1
 H, KJ/KG        333268.9 333747.4 334224.0 334698.8 335171.7 335642.7 324888.9 325401.6
 U, KJ/KG        273569.2 273934.0 274297.1 274658.4 275018.1 275376.1 266780.9 267176.6
 G, KJ/KG       -698210.4-699509.8-700809.8-702110.3-703411.5-704713.3-679457.0-680736.8
 S, KJ/(KG)(K)   129.9092 129.9695 130.0294 130.0890 130.1483 130.2073 127.9422 128.0074

 M, (1/n)           1.106    1.105    1.104    1.104    1.103    1.102    1.123    1.122
 (dLV/dLP)t      -1.07298 -1.07260 -1.07223 -1.07185 -1.07148 -1.07110 -1.08168 -1.08129
 (dLV/dLT)p        1.5137   1.5104   1.5071   1.5039   1.5006   1.4974   1.5812   1.5777
 Cp, KJ/(KG)(K)   47.9454  47.7565  47.5687  47.3820  47.1965  47.0120  51.3664  51.1671
 GAMMAs            1.4012   1.4021   1.4030   1.4040   1.4049   1.4058   1.3862   1.3871
 SON VEL,M/SEC     9146.1   9157.8   9169.5   9181.2   9192.8   9204.5   8975.1   8987.0

 TRANSPORT PROPERTIES (GASES ONLY)
   CONDUCTIVITY IN UNITS OF MILLIWATTS/(CM)(K)

 VISC,MILLIPOISE  0.96339  0.96367  0.96396  0.96425  0.96455  0.96485  0.97314  0.97338

  WITH EQUILIBRIUM REACTIONS

 Cp, KJ/(KG)(K)   47.9454  47.7565  47.5687  47.3820  47.1965  47.0120  51.3664  51.1671
 CONDUCTIVITY     73.2329  72.9542  72.6773  72.4021  72.1286  71.8569  79.3455  79.0459
 PRANDTL NUMBER    0.6307   0.6308   0.6309   0.6310   0.6311   0.6312   0.6300   0.6301

  WITH FROZEN REACTIONS

 Cp, KJ/(KG)(K)   20.6369  20.6360  20.6351  20.6342  20.6332  20.6323  20.6461  20.6450
 CONDUCTIVITY     28.1264  28.1416  28.1570  28.1724  28.1879  28.2036  28.2461  28.2597
 PRANDTL NUMBER    0.7069   0.7067   0.7064   0.7062   0.7060   0.7058   0.7113   0.7111

 MASS FRACTIONS

 *H               0.82265  0.82382  0.82498  0.82614  0.82728  0.82842  0.79445  0.79577
 *H+              0.00010  0.00010  0.00011  0.00011  0.00011  0.00011  0.00008  0.00008
 *H-              0.00001  0.00001  0.00001  0.00001  0.00001  0.00001  0.00001  0.00001
 *H2              0.17721  0.17604  0.17487  0.17372  0.17257  0.17143  0.20543  0.20411
 *H2+             0.00003  0.00003  0.00003  0.00003  0.00003  0.00003  0.00002  0.00002

  * THERMODYNAMIC PROPERTIES FITTED TO 20000.K

 NOTE. WEIGHT FRACTION OF FUEL IN TOTAL FUELS AND OF OXIDANT IN TOTAL OXIDANTS









               THERMODYNAMIC EQUILIBRIUM PROPERTIES AT ASSIGNED

                           TEMPERATURE AND PRESSURE

 CASE =                

             REACTANT                    WT FRACTION      ENERGY      TEMP
                                          (SEE NOTE)     KJ/KG-MOL      K  
 FUEL        H2                           1.0000000         0.000      0.000
 OXIDANT     H2                           1.0000000         0.000      0.000

 O/F=    1.00000  %FUEL= 50.000000  R,EQ.RATIO= 0.000000  PHI,EQ.RATIO=-1.000000

 THERMODYNAMIC PROPERTIES

 P, BAR            350.00   350.00   350.00   350.00   350.00   350.00   350.00   350.00
 T, K             7870.00  7880.00  7890.00  7900.00  7910.00  7920.00  7930.00  7940.00
 RHO, KG/CU M    5.9991-1 5.9872-1 5.9753-1 5.9634-1 5.9516-1 5.9399-1 5.9283-1 5.9167-1
 H, KJ/KG        325912.3 326421.0 326927.7 327432.5 327935.3 328436.2 328935.1 329432.2
 U, KJ/KG        267570.5 267962.6 268352.9 268741.4 269128.1 269513.0 269896.2 270277.7
 G, KJ/KG       -682017.2-683298.2-684579.9-685862.2-687145.2-688428.8-689713.1-690997.9
 S, KJ/(KG)(K)   128.0724 128.1370 128.2012 128.2652 128.3288 128.3920 128.4550 128.5176

 M, (1/n)           1.122    1.121    1.120    1.119    1.118    1.118    1.117    1.116
 (dLV/dLP)t      -1.08090 -1.08051 -1.08013 -1.07974 -1.07936 -1.07897 -1.07859 -1.07821
 (dLV/dLT)p        1.5743   1.5708   1.5673   1.5639   1.5605   1.5571   1.5537   1.5503
 Cp, KJ/(KG)(K)   50.9688  50.7714  50.5749  50.3794  50.1848  49.9911  49.7985  49.6067
 GAMMAs            1.3880   1.3889   1.3898   1.3907   1.3916   1.3925   1.3934   1.3943
 SON VEL,M/SEC     8998.9   9010.8   9022.6   9034.5   9046.3   9058.1   9069.9   9081.7

 TRANSPORT PROPERTIES (GASES ONLY)
   CONDUCTIVITY IN UNITS OF MILLIWATTS/(CM)(K)

 VISC,MILLIPOISE  0.97362  0.97387  0.97411  0.97436  0.97462  0.97487  0.97513  0.97539

  WITH EQUILIBRIUM REACTIONS

 Cp, KJ/(KG)(K)   50.9688  50.7714  50.5749  50.3794  50.1848  49.9911  49.7985  49.6067
 CONDUCTIVITY     78.7479  78.4514  78.1564  77.8630  77.5710  77.2807  76.9918  76.7046
 PRANDTL NUMBER    0.6302   0.6303   0.6303   0.6304   0.6305   0.6306   0.6307   0.6308

  WITH FROZEN REACTIONS

 Cp, KJ/(KG)(K)   20.6440  20.6429  20.6419  20.6408  20.6398  20.6387  20.6377  20.6367
 CONDUCTIVITY     28.2734  28.2872  28.3010  28.3150  28.3290  28.3431  28.3573  28.3716
 PRANDTL NUMBER    0.7109   0.7107   0.7105   0.7103   0.7101   0.7099   0.7097   0.7095

 MASS FRACTIONS

 *H               0.79708  0.79839  0.79968  0.80097  0.80224  0.80351  0.80477  0.80602
 *H+              0.00009  0.00009  0.00009  0.00009  0.00009  0.00009  0.00009  0.00009
 *H-              0.00001  0.00001  0.00001  0.00001  0.00001  0.00001  0.00001  0.00001
 *H2              0.20280  0.20149  0.20019  0.19891  0.19763  0.19636  0.19510  0.19384
 *H2+             0.00002  0.00003  0.00003  0.00003  0.00003  0.00003  0.00003  0.00003

  * THERMODYNAMIC PROPERTIES FITTED TO 20000.K

 NOTE. WEIGHT FRACTION OF FUEL IN TOTAL FUELS AND OF OXIDANT IN TOTAL OXIDANTS









               THERMODYNAMIC EQUILIBRIUM PROPERTIES AT ASSIGNED

                           TEMPERATURE AND PRESSURE

 CASE =                

             REACTANT                    WT FRACTION      ENERGY      TEMP
                                          (SEE NOTE)     KJ/KG-MOL      K  
 FUEL        H2                           1.0000000         0.000      0.000
 OXIDANT     H2                           1.0000000         0.000      0.000

 O/F=    1.00000  %FUEL= 50.000000  R,EQ.RATIO= 0.000000  PHI,EQ.RATIO=-1.000000

 THERMODYNAMIC PROPERTIES

 P, BAR            350.00   350.00   350.00   350.00   350.00   390.00   390.00   390.00
 T, K             7950.00  7960.00  7970.00  7980.00  7990.00  7850.00  7860.00  7870.00
 RHO, KG/CU M    5.9052-1 5.8937-1 5.8823-1 5.8710-1 5.8597-1 6.7729-1 6.7590-1 6.7452-1
 H, KJ/KG        329927.3 330420.5 330911.8 331401.2 331888.8 321147.4 321674.4 322199.4
 U, KJ/KG        270657.3 271035.3 271411.5 271786.1 272158.9 263565.2 263973.9 264380.8
 G, KJ/KG       -692283.4-693569.5-694856.2-696143.6-697431.5-673197.2-674464.2-675731.9
 S, KJ/(KG)(K)   128.5800 128.6420 128.7036 128.7650 128.8261 126.6681 126.7352 126.8019

 M, (1/n)           1.115    1.114    1.114    1.113    1.112    1.133    1.133    1.132
 (dLV/dLP)t      -1.07783 -1.07745 -1.07707 -1.07669 -1.07631 -1.08633 -1.08594 -1.08555
 (dLV/dLT)p        1.5470   1.5437   1.5403   1.5370   1.5337   1.6142   1.6107   1.6072
 Cp, KJ/(KG)(K)   49.4160  49.2262  49.0374  48.8496  48.6627  52.8018  52.6038  52.4065
 GAMMAs            1.3951   1.3960   1.3969   1.3978   1.3987   1.3806   1.3814   1.3823
 SON VEL,M/SEC     9093.4   9105.2   9116.9   9128.6   9140.3   8916.0   8928.0   8939.9

 TRANSPORT PROPERTIES (GASES ONLY)
   CONDUCTIVITY IN UNITS OF MILLIWATTS/(CM)(K)

 VISC,MILLIPOISE  0.97565  0.97592  0.97619  0.97646  0.97673  0.98436  0.98458  0.98481

  WITH EQUILIBRIUM REACTIONS

 Cp, KJ/(KG)(K)   49.4160  49.2262  49.0374  48.8496  48.6627  52.8018  52.6038  52.4065
 CONDUCTIVITY     76.4188  76.1347  75.8521  75.5711  75.2917  82.4856  82.1837  81.8832
 PRANDTL NUMBER    0.6309   0.6310   0.6311   0.6312   0.6313   0.6301   0.6302   0.6303

  WITH FROZEN REACTIONS

 Cp, KJ/(KG)(K)   20.6357  20.6346  20.6336  20.6326  20.6316  20.6466  20.6455  20.6443
 CONDUCTIVITY     28.3860  28.4005  28.4151  28.4297  28.4445  28.4825  28.4954  28.5084
 PRANDTL NUMBER    0.7093   0.7091   0.7089   0.7087   0.7085   0.7135   0.7134   0.7132

 MASS FRACTIONS

 *H               0.80727  0.80850  0.80973  0.81095  0.81216  0.77823  0.77961  0.78098
 *H+              0.00010  0.00010  0.00010  0.00010  0.00010  0.00008  0.00008  0.00008
 *H-              0.00001  0.00001  0.00001  0.00001  0.00001  0.00001  0.00001  0.00001
 *H2              0.19260  0.19136  0.19013  0.18891  0.18770  0.22166  0.22027  0.21890
 *H2+             0.00003  0.00003  0.00003  0.00003  0.00003  0.00002  0.00003  0.00003

  * THERMODYNAMIC PROPERTIES FITTED TO 20000.K

 NOTE. WEIGHT FRACTION OF FUEL IN TOTAL FUELS AND OF OXIDANT IN TOTAL OXIDANTS









               THERMODYNAMIC EQUILIBRIUM PROPERTIES AT ASSIGNED

                           TEMPERATURE AND PRESSURE

 CASE =                

             REACTANT                    WT FRACTION      ENERGY      TEMP
                                          (SEE NOTE)     KJ/KG-MOL      K  
 FUEL        H2                           1.0000000         0.000      0.000
 OXIDANT     H2                           1.0000000         0.000      0.000

 O/F=    1.00000  %FUEL= 50.000000  R,EQ.RATIO= 0.000000  PHI,EQ.RATIO=-1.000000

 THERMODYNAMIC PROPERTIES

 P, BAR            390.00   390.00   390.00   390.00   390.00   390.00   390.00   390.00
 T, K             7880.00  7890.00  7900.00  7910.00  7920.00  7930.00  7940.00  7950.00
 RHO, KG/CU M    6.7315-1 6.7178-1 6.7042-1 6.6907-1 6.6773-1 6.6639-1 6.6506-1 6.6374-1
 H, KJ/KG        322722.5 323243.6 323762.8 324280.0 324795.3 325308.7 325820.1 326329.7
 U, KJ/KG        264785.8 265189.1 265590.6 265990.4 266388.3 266784.5 267179.0 267571.6
 G, KJ/KG       -677000.2-678269.2-679538.9-680809.2-682080.2-683351.9-684624.1-685897.1
 S, KJ/(KG)(K)   126.8684 126.9345 127.0002 127.0656 127.1308 127.1955 127.2600 127.3241

 M, (1/n)           1.131    1.130    1.129    1.128    1.127    1.127    1.126    1.125
 (dLV/dLP)t      -1.08517 -1.08479 -1.08440 -1.08402 -1.08364 -1.08326 -1.08288 -1.08250
 (dLV/dLT)p        1.6037   1.6002   1.5968   1.5933   1.5899   1.5865   1.5831   1.5797
 Cp, KJ/(KG)(K)   52.2101  52.0144  51.8195  51.6254  51.4322  51.2397  51.0481  50.8573
 GAMMAs            1.3831   1.3840   1.3849   1.3857   1.3866   1.3875   1.3883   1.3892
 SON VEL,M/SEC     8951.8   8963.7   8975.6   8987.5   8999.3   9011.1   9023.0   9034.8

 TRANSPORT PROPERTIES (GASES ONLY)
   CONDUCTIVITY IN UNITS OF MILLIWATTS/(CM)(K)

 VISC,MILLIPOISE  0.98504  0.98528  0.98551  0.98575  0.98599  0.98624  0.98648  0.98673

  WITH EQUILIBRIUM REACTIONS

 Cp, KJ/(KG)(K)   52.2101  52.0144  51.8195  51.6254  51.4322  51.2397  51.0481  50.8573
 CONDUCTIVITY     81.5840  81.2861  80.9896  80.6944  80.4005  80.1081  79.8170  79.5273
 PRANDTL NUMBER    0.6304   0.6305   0.6306   0.6306   0.6307   0.6308   0.6309   0.6310

  WITH FROZEN REACTIONS

 Cp, KJ/(KG)(K)   20.6432  20.6421  20.6409  20.6398  20.6387  20.6376  20.6364  20.6353
 CONDUCTIVITY     28.5215  28.5346  28.5479  28.5612  28.5746  28.5881  28.6017  28.6154
 PRANDTL NUMBER    0.7130   0.7128   0.7126   0.7124   0.7122   0.7120   0.7118   0.7116

 MASS FRACTIONS

 *H               0.78235  0.78371  0.78506  0.78640  0.78773  0.78905  0.79037  0.79167
 *H+              0.00008  0.00008  0.00008  0.00008  0.00009  0.00009  0.00009  0.00009
 *H-              0.00001  0.00001  0.00001  0.00001  0.00001  0.00001  0.00001  0.00001
 *H2              0.21753  0.21617  0.21482  0.21348  0.21215  0.21082  0.20950  0.20819
 *H2+             0.00003  0.00003  0.00003  0.00003  0.00003  0.00003  0.00003  0.00003

  * THERMODYNAMIC PROPERTIES FITTED TO 20000.K

 NOTE. WEIGHT FRACTION OF FUEL IN TOTAL FUELS AND OF OXIDANT IN TOTAL OXIDANTS









               THERMODYNAMIC EQUILIBRIUM PROPERTIES AT ASSIGNED

                           TEMPERATURE AND PRESSURE

 CASE =                

             REACTANT                    WT FRACTION      ENERGY      TEMP
                                          (SEE NOTE)     KJ/KG-MOL      K  
 FUEL        H2                           1.0000000         0.000      0.000
 OXIDANT     H2                           1.0000000         0.000      0.000

 O/F=    1.00000  %FUEL= 50.000000  R,EQ.RATIO= 0.000000  PHI,EQ.RATIO=-1.000000

 THERMODYNAMIC PROPERTIES

 P, BAR            390.00   390.00   390.00   390.00   440.00   440.00   440.00   440.00
 T, K             7960.00  7970.00  7980.00  7990.00  7850.00  7860.00  7870.00  7880.00
 RHO, KG/CU M    6.6242-1 6.6112-1 6.5981-1 6.5852-1 7.7236-1 7.7074-1 7.6913-1 7.6753-1
 H, KJ/KG        326837.3 327343.0 327846.8 328348.8 316778.6 317320.8 317861.0 318399.4
 U, KJ/KG        267962.6 268351.8 268739.3 269125.1 259810.5 260233.0 260653.7 261072.6
 G, KJ/KG       -687170.6-688444.8-689719.6-690995.1-666287.9-667540.6-668793.9-670047.9
 S, KJ/(KG)(K)   127.3879 127.4514 127.5146 127.5775 125.2314 125.3004 125.3691 125.4375

 M, (1/n)           1.124    1.123    1.123    1.122    1.146    1.145    1.144    1.143
 (dLV/dLP)t      -1.08212 -1.08174 -1.08136 -1.08098 -1.09142 -1.09104 -1.09066 -1.09029
 (dLV/dLT)p        1.5763   1.5730   1.5696   1.5663   1.6503   1.6468   1.6434   1.6399
 Cp, KJ/(KG)(K)   50.6673  50.4782  50.2900  50.1026  54.3174  54.1228  53.9288  53.7353
 GAMMAs            1.3901   1.3909   1.3918   1.3927   1.3745   1.3754   1.3762   1.3770
 SON VEL,M/SEC     9046.6   9058.3   9070.1   9081.8   8848.9   8860.9   8872.9   8884.8

 TRANSPORT PROPERTIES (GASES ONLY)
   CONDUCTIVITY IN UNITS OF MILLIWATTS/(CM)(K)

 VISC,MILLIPOISE  0.98698  0.98723  0.98749  0.98774  0.99717  0.99739  0.99761  0.99783

  WITH EQUILIBRIUM REACTIONS

 Cp, KJ/(KG)(K)   50.6673  50.4782  50.2900  50.1026  54.3174  54.1228  53.9288  53.7353
 CONDUCTIVITY     79.2389  78.9520  78.6665  78.3824  85.9431  85.6417  85.3414  85.0422
 PRANDTL NUMBER    0.6311   0.6312   0.6313   0.6314   0.6302   0.6303   0.6304   0.6305

  WITH FROZEN REACTIONS

 Cp, KJ/(KG)(K)   20.6342  20.6331  20.6320  20.6310  20.6473  20.6460  20.6448  20.6435
 CONDUCTIVITY     28.6291  28.6430  28.6569  28.6709  28.7571  28.7694  28.7817  28.7940
 PRANDTL NUMBER    0.7114   0.7112   0.7110   0.7108   0.7160   0.7158   0.7156   0.7154

 MASS FRACTIONS

 *H               0.79297  0.79426  0.79554  0.79682  0.75928  0.76073  0.76217  0.76360
 *H+              0.00009  0.00009  0.00009  0.00010  0.00007  0.00007  0.00007  0.00007
 *H-              0.00001  0.00001  0.00001  0.00001  0.00001  0.00001  0.00001  0.00001
 *H2              0.20689  0.20560  0.20432  0.20304  0.24061  0.23916  0.23772  0.23628
 *H2+             0.00003  0.00003  0.00003  0.00003  0.00003  0.00003  0.00003  0.00003

  * THERMODYNAMIC PROPERTIES FITTED TO 20000.K

 NOTE. WEIGHT FRACTION OF FUEL IN TOTAL FUELS AND OF OXIDANT IN TOTAL OXIDANTS









               THERMODYNAMIC EQUILIBRIUM PROPERTIES AT ASSIGNED

                           TEMPERATURE AND PRESSURE

 CASE =                

             REACTANT                    WT FRACTION      ENERGY      TEMP
                                          (SEE NOTE)     KJ/KG-MOL      K  
 FUEL        H2                           1.0000000         0.000      0.000
 OXIDANT     H2                           1.0000000         0.000      0.000

 O/F=    1.00000  %FUEL= 50.000000  R,EQ.RATIO= 0.000000  PHI,EQ.RATIO=-1.000000

 THERMODYNAMIC PROPERTIES

 P, BAR            440.00   440.00   440.00   440.00   440.00   440.00   440.00   440.00
 T, K             7890.00  7900.00  7910.00  7920.00  7930.00  7940.00  7950.00  7960.00
 RHO, KG/CU M    7.6594-1 7.6435-1 7.6278-1 7.6121-1 7.5965-1 7.5810-1 7.5656-1 7.5503-1
 H, KJ/KG        318935.7 319470.2 320002.8 320533.4 321062.1 321588.9 322113.9 322636.9
 U, KJ/KG        261489.8 261905.2 262318.8 262730.7 263140.8 263549.2 263955.8 264360.8
 G, KJ/KG       -671302.7-672558.1-673814.1-675070.9-676328.3-677586.3-678845.1-680104.5
 S, KJ/(KG)(K)   125.5055 125.5732 125.6406 125.7076 125.7743 125.8407 125.9068 125.9725

 M, (1/n)           1.142    1.141    1.140    1.139    1.138    1.137    1.137    1.136
 (dLV/dLP)t      -1.08991 -1.08954 -1.08916 -1.08879 -1.08841 -1.08804 -1.08766 -1.08729
 (dLV/dLT)p        1.6364   1.6330   1.6295   1.6261   1.6227   1.6193   1.6159   1.6125
 Cp, KJ/(KG)(K)   53.5425  53.3503  53.1587  52.9678  52.7775  52.5879  52.3989  52.2106
 GAMMAs            1.3779   1.3787   1.3795   1.3804   1.3812   1.3821   1.3829   1.3837
 SON VEL,M/SEC     8896.8   8908.7   8920.6   8932.5   8944.4   8956.2   8968.1   8979.9

 TRANSPORT PROPERTIES (GASES ONLY)
   CONDUCTIVITY IN UNITS OF MILLIWATTS/(CM)(K)

 VISC,MILLIPOISE  0.99806  0.99828  0.99851  0.99874  0.99897  0.99921  0.99944  0.99968

  WITH EQUILIBRIUM REACTIONS

 Cp, KJ/(KG)(K)   53.5425  53.3503  53.1587  52.9678  52.7775  52.5879  52.3989  52.2106
 CONDUCTIVITY     84.7441  84.4470  84.1511  83.8563  83.5626  83.2700  82.9786  82.6884
 PRANDTL NUMBER    0.6306   0.6307   0.6308   0.6309   0.6309   0.6310   0.6311   0.6312

  WITH FROZEN REACTIONS

 Cp, KJ/(KG)(K)   20.6423  20.6411  20.6398  20.6386  20.6374  20.6362  20.6350  20.6338
 CONDUCTIVITY     28.8065  28.8191  28.8317  28.8444  28.8572  28.8700  28.8830  28.8960
 PRANDTL NUMBER    0.7152   0.7150   0.7148   0.7146   0.7144   0.7142   0.7140   0.7138

 MASS FRACTIONS

 *H               0.76503  0.76644  0.76785  0.76925  0.77064  0.77202  0.77340  0.77476
 *H+              0.00008  0.00008  0.00008  0.00008  0.00008  0.00008  0.00008  0.00008
 *H-              0.00001  0.00001  0.00001  0.00001  0.00001  0.00001  0.00001  0.00001
 *H2              0.23486  0.23344  0.23203  0.23063  0.22924  0.22785  0.22648  0.22511
 *H2+             0.00003  0.00003  0.00003  0.00003  0.00003  0.00003  0.00003  0.00003

  * THERMODYNAMIC PROPERTIES FITTED TO 20000.K

 NOTE. WEIGHT FRACTION OF FUEL IN TOTAL FUELS AND OF OXIDANT IN TOTAL OXIDANTS









               THERMODYNAMIC EQUILIBRIUM PROPERTIES AT ASSIGNED

                           TEMPERATURE AND PRESSURE

 CASE =                

             REACTANT                    WT FRACTION      ENERGY      TEMP
                                          (SEE NOTE)     KJ/KG-MOL      K  
 FUEL        H2                           1.0000000         0.000      0.000
 OXIDANT     H2                           1.0000000         0.000      0.000

 O/F=    1.00000  %FUEL= 50.000000  R,EQ.RATIO= 0.000000  PHI,EQ.RATIO=-1.000000

 THERMODYNAMIC PROPERTIES

 P, BAR            440.00   440.00   440.00   490.00   490.00   490.00   490.00   490.00
 T, K             7970.00  7980.00  7990.00  7850.00  7860.00  7870.00  7880.00  7890.00
 RHO, KG/CU M    7.5350-1 7.5198-1 7.5047-1 8.6884-1 8.6699-1 8.6514-1 8.6330-1 8.6148-1
 H, KJ/KG        323158.1 323677.4 324194.8 312714.9 313269.7 313822.6 314373.6 314922.8
 U, KJ/KG        264764.0 265165.4 265565.2 256318.0 256752.1 257184.4 257615.0 258043.8
 G, KJ/KG       -681364.5-682625.2-683886.6-660186.9-661426.7-662667.1-663908.2-665150.0
 S, KJ/(KG)(K)   126.0380 126.1031 126.1679 123.9365 124.0072 124.0775 124.1474 124.2171

 M, (1/n)           1.135    1.134    1.133    1.157    1.156    1.155    1.154    1.153
 (dLV/dLP)t      -1.08691 -1.08654 -1.08617 -1.09583 -1.09547 -1.09510 -1.09474 -1.09437
 (dLV/dLT)p        1.6091   1.6058   1.6024   1.6817   1.6782   1.6748   1.6714   1.6679
 Cp, KJ/(KG)(K)   52.0230  51.8361  51.6499  55.5753  55.3855  55.1961  55.0071  54.8185
 GAMMAs            1.3846   1.3854   1.3863   1.3694   1.3702   1.3710   1.3718   1.3726
 SON VEL,M/SEC     8991.7   9003.6   9015.3   8788.1   8800.1   8812.1   8824.0   8836.0

 TRANSPORT PROPERTIES (GASES ONLY)
   CONDUCTIVITY IN UNITS OF MILLIWATTS/(CM)(K)

 VISC,MILLIPOISE  0.99992   1.0002   1.0004   1.0088   1.0090   1.0092   1.0095   1.0097

  WITH EQUILIBRIUM REACTIONS

 Cp, KJ/(KG)(K)   52.0230  51.8361  51.6499  55.5753  55.3855  55.1961  55.0071  54.8185
 CONDUCTIVITY     82.3994  82.1116  81.8250  88.9566  88.6585  88.3612  88.0648  87.7692
 PRANDTL NUMBER    0.6313   0.6314   0.6315   0.6302   0.6303   0.6304   0.6305   0.6306

  WITH FROZEN REACTIONS

 Cp, KJ/(KG)(K)   20.6326  20.6314  20.6302  20.6479  20.6466  20.6452  20.6439  20.6426
 CONDUCTIVITY     28.9091  28.9223  28.9356  29.0111  29.0228  29.0346  29.0464  29.0584
 PRANDTL NUMBER    0.7136   0.7135   0.7133   0.7180   0.7178   0.7176   0.7174   0.7173

 MASS FRACTIONS

 *H               0.77612  0.77747  0.77881  0.74165  0.74315  0.74465  0.74614  0.74762
 *H+              0.00009  0.00009  0.00009  0.00007  0.00007  0.00007  0.00007  0.00007
 *H-              0.00001  0.00001  0.00001  0.00001  0.00001  0.00001  0.00001  0.00001
 *H2              0.22375  0.22240  0.22106  0.25825  0.25674  0.25524  0.25375  0.25227
 *H2+             0.00003  0.00003  0.00003  0.00003  0.00003  0.00003  0.00003  0.00003

  * THERMODYNAMIC PROPERTIES FITTED TO 20000.K

 NOTE. WEIGHT FRACTION OF FUEL IN TOTAL FUELS AND OF OXIDANT IN TOTAL OXIDANTS









               THERMODYNAMIC EQUILIBRIUM PROPERTIES AT ASSIGNED

                           TEMPERATURE AND PRESSURE

 CASE =                

             REACTANT                    WT FRACTION      ENERGY      TEMP
                                          (SEE NOTE)     KJ/KG-MOL      K  
 FUEL        H2                           1.0000000         0.000      0.000
 OXIDANT     H2                           1.0000000         0.000      0.000

 O/F=    1.00000  %FUEL= 50.000000  R,EQ.RATIO= 0.000000  PHI,EQ.RATIO=-1.000000

 THERMODYNAMIC PROPERTIES

 P, BAR            490.00   490.00   490.00   490.00   490.00   490.00   490.00   490.00
 T, K             7900.00  7910.00  7920.00  7930.00  7940.00  7950.00  7960.00  7970.00
 RHO, KG/CU M    8.5966-1 8.5786-1 8.5606-1 8.5427-1 8.5249-1 8.5073-1 8.4897-1 8.4722-1
 H, KJ/KG        315470.0 316015.4 316558.9 317100.5 317640.2 318178.1 318714.2 319248.4
 U, KJ/KG        258470.8 258896.2 259319.8 259741.7 260161.9 260580.3 260997.1 261412.1
 G, KJ/KG       -666392.5-667635.8-668879.7-670124.2-671369.5-672615.4-673862.1-675109.4
 S, KJ/(KG)(K)   124.2864 124.3554 124.4241 124.4924 124.5604 124.6281 124.6955 124.7626

 M, (1/n)           1.152    1.151    1.150    1.150    1.149    1.148    1.147    1.146
 (dLV/dLP)t      -1.09401 -1.09364 -1.09328 -1.09291 -1.09255 -1.09218 -1.09182 -1.09145
 (dLV/dLT)p        1.6645   1.6611   1.6577   1.6543   1.6510   1.6476   1.6442   1.6409
 Cp, KJ/(KG)(K)   54.6304  54.4428  54.2557  54.0691  53.8829  53.6973  53.5122  53.3276
 GAMMAs            1.3735   1.3743   1.3751   1.3759   1.3767   1.3775   1.3784   1.3792
 SON VEL,M/SEC     8847.9   8859.9   8871.8   8883.7   8895.6   8907.5   8919.4   8931.2

 TRANSPORT PROPERTIES (GASES ONLY)
   CONDUCTIVITY IN UNITS OF MILLIWATTS/(CM)(K)

 VISC,MILLIPOISE   1.0099   1.0101   1.0104   1.0106   1.0108   1.0111   1.0113   1.0115

  WITH EQUILIBRIUM REACTIONS

 Cp, KJ/(KG)(K)   54.6304  54.4428  54.2557  54.0691  53.8829  53.6973  53.5122  53.3276
 CONDUCTIVITY     87.4744  87.1805  86.8876  86.5955  86.3043  86.0141  85.7249  85.4366
 PRANDTL NUMBER    0.6307   0.6308   0.6309   0.6310   0.6311   0.6312   0.6313   0.6314

  WITH FROZEN REACTIONS

 Cp, KJ/(KG)(K)   20.6412  20.6399  20.6386  20.6373  20.6360  20.6347  20.6334  20.6321
 CONDUCTIVITY     29.0704  29.0825  29.0946  29.1069  29.1192  29.1315  29.1440  29.1565
 PRANDTL NUMBER    0.7171   0.7169   0.7167   0.7165   0.7163   0.7162   0.7160   0.7158

 MASS FRACTIONS

 *H               0.74909  0.75055  0.75201  0.75346  0.75490  0.75633  0.75775  0.75917
 *H+              0.00007  0.00007  0.00007  0.00008  0.00008  0.00008  0.00008  0.00008
 *H-              0.00001  0.00001  0.00001  0.00001  0.00001  0.00001  0.00001  0.00001
 *H2              0.25080  0.24933  0.24787  0.24642  0.24498  0.24355  0.24213  0.24071
 *H2+             0.00003  0.00003  0.00003  0.00003  0.00003  0.00003  0.00003  0.00003

  * THERMODYNAMIC PROPERTIES FITTED TO 20000.K

 NOTE. WEIGHT FRACTION OF FUEL IN TOTAL FUELS AND OF OXIDANT IN TOTAL OXIDANTS









               THERMODYNAMIC EQUILIBRIUM PROPERTIES AT ASSIGNED

                           TEMPERATURE AND PRESSURE

 CASE =                

             REACTANT                    WT FRACTION      ENERGY      TEMP
                                          (SEE NOTE)     KJ/KG-MOL      K  
 FUEL        H2                           1.0000000         0.000      0.000
 OXIDANT     H2                           1.0000000         0.000      0.000

 O/F=    1.00000  %FUEL= 50.000000  R,EQ.RATIO= 0.000000  PHI,EQ.RATIO=-1.000000

 THERMODYNAMIC PROPERTIES

 P, BAR            490.00   490.00   540.00   540.00   540.00   540.00   540.00   540.00
 T, K             7980.00  7990.00  7850.00  7860.00  7870.00  7880.00  7890.00  7900.00
 RHO, KG/CU M    8.4548-1 8.4375-1 9.6664-1 9.6454-1 9.6245-1 9.6038-1 9.5831-1 9.5626-1
 H, KJ/KG        319780.7 320311.3 308922.3 309487.6 310051.0 310612.6 311172.4 311730.3
 U, KJ/KG        261825.5 262237.1 253058.6 253502.4 253944.4 254384.7 254823.3 255260.2
 G, KJ/KG       -676357.3-677605.9-654733.0-655960.9-657189.6-658419.0-659649.1-660879.9
 S, KJ/(KG)(K)   124.8293 124.8958 122.7586 122.8306 122.9022 122.9736 123.0445 123.1152

 M, (1/n)           1.145    1.144    1.168    1.167    1.166    1.165    1.164    1.163
 (dLV/dLP)t      -1.09109 -1.09072 -1.09968 -1.09932 -1.09897 -1.09862 -1.09827 -1.09792
 (dLV/dLT)p        1.6375   1.6342   1.7089   1.7056   1.7022   1.6988   1.6955   1.6921
 Cp, KJ/(KG)(K)   53.1436  52.9602  56.6201  56.4360  56.2521  56.0685  55.8852  55.7022
 GAMMAs            1.3800   1.3808   1.3650   1.3658   1.3666   1.3674   1.3681   1.3689
 SON VEL,M/SEC     8943.0   8954.9   8732.3   8744.3   8756.3   8768.3   8780.3   8792.3

 TRANSPORT PROPERTIES (GASES ONLY)
   CONDUCTIVITY IN UNITS OF MILLIWATTS/(CM)(K)

 VISC,MILLIPOISE   1.0118   1.0120   1.0194   1.0196   1.0199   1.0201   1.0203   1.0205

  WITH EQUILIBRIUM REACTIONS

 Cp, KJ/(KG)(K)   53.1436  52.9602  56.6201  56.4360  56.2521  56.0685  55.8852  55.7022
 CONDUCTIVITY     85.1493  84.8630  91.5926  91.2998  91.0076  90.7160  90.4249  90.1346
 PRANDTL NUMBER    0.6315   0.6316   0.6302   0.6303   0.6304   0.6305   0.6306   0.6307

  WITH FROZEN REACTIONS

 Cp, KJ/(KG)(K)   20.6308  20.6295  20.6485  20.6471  20.6456  20.6442  20.6428  20.6414
 CONDUCTIVITY     29.1691  29.1818  29.2466  29.2579  29.2693  29.2808  29.2924  29.3040
 PRANDTL NUMBER    0.7156   0.7154   0.7197   0.7195   0.7194   0.7192   0.7190   0.7189

 MASS FRACTIONS

 *H               0.76057  0.76197  0.72519  0.72674  0.72829  0.72982  0.73135  0.73287
 *H+              0.00008  0.00008  0.00006  0.00006  0.00006  0.00007  0.00007  0.00007
 *H-              0.00001  0.00001  0.00001  0.00001  0.00001  0.00001  0.00001  0.00001
 *H2              0.23930  0.23790  0.27471  0.27315  0.27161  0.27007  0.26854  0.26702
 *H2+             0.00003  0.00003  0.00003  0.00003  0.00003  0.00003  0.00003  0.00003

  * THERMODYNAMIC PROPERTIES FITTED TO 20000.K

 NOTE. WEIGHT FRACTION OF FUEL IN TOTAL FUELS AND OF OXIDANT IN TOTAL OXIDANTS









               THERMODYNAMIC EQUILIBRIUM PROPERTIES AT ASSIGNED

                           TEMPERATURE AND PRESSURE

 CASE =                

             REACTANT                    WT FRACTION      ENERGY      TEMP
                                          (SEE NOTE)     KJ/KG-MOL      K  
 FUEL        H2                           1.0000000         0.000      0.000
 OXIDANT     H2                           1.0000000         0.000      0.000

 O/F=    1.00000  %FUEL= 50.000000  R,EQ.RATIO= 0.000000  PHI,EQ.RATIO=-1.000000

 THERMODYNAMIC PROPERTIES

 P, BAR            540.00   540.00   540.00   540.00   540.00   540.00   540.00   540.00
 T, K             7910.00  7920.00  7930.00  7940.00  7950.00  7960.00  7970.00  7980.00
 RHO, KG/CU M    9.5422-1 9.5218-1 9.5016-1 9.4815-1 9.4615-1 9.4417-1 9.4219-1 9.4022-1
 H, KJ/KG        312286.4 312840.7 313393.2 313943.8 314492.7 315039.7 315584.9 316128.3
 U, KJ/KG        255695.5 256129.0 256560.8 256991.0 257419.5 257846.3 258271.4 258694.9
 G, KJ/KG       -662111.4-663343.6-664576.5-665810.1-667044.4-668279.4-669515.0-670751.4
 S, KJ/(KG)(K)   123.1856 123.2556 123.3253 123.3947 123.4638 123.5325 123.6010 123.6691

 M, (1/n)           1.162    1.161    1.160    1.159    1.158    1.157    1.156    1.155
 (dLV/dLP)t      -1.09757 -1.09721 -1.09686 -1.09651 -1.09615 -1.09580 -1.09544 -1.09509
 (dLV/dLT)p        1.6887   1.6854   1.6821   1.6787   1.6754   1.6721   1.6688   1.6655
 Cp, KJ/(KG)(K)   55.5195  55.3372  55.1552  54.9736  54.7923  54.6115  54.4310  54.2509
 GAMMAs            1.3697   1.3705   1.3713   1.3721   1.3729   1.3737   1.3745   1.3753
 SON VEL,M/SEC     8804.2   8816.2   8828.1   8840.0   8851.9   8863.8   8875.7   8887.5

 TRANSPORT PROPERTIES (GASES ONLY)
   CONDUCTIVITY IN UNITS OF MILLIWATTS/(CM)(K)

 VISC,MILLIPOISE   1.0208   1.0210   1.0212   1.0215   1.0217   1.0219   1.0222   1.0224

  WITH EQUILIBRIUM REACTIONS

 Cp, KJ/(KG)(K)   55.5195  55.3372  55.1552  54.9736  54.7923  54.6115  54.4310  54.2509
 CONDUCTIVITY     89.8448  89.5558  89.2674  88.9798  88.6928  88.4067  88.1212  87.8366
 PRANDTL NUMBER    0.6308   0.6309   0.6310   0.6311   0.6312   0.6313   0.6314   0.6315

  WITH FROZEN REACTIONS

 Cp, KJ/(KG)(K)   20.6400  20.6386  20.6372  20.6358  20.6344  20.6330  20.6316  20.6302
 CONDUCTIVITY     29.3156  29.3274  29.3392  29.3510  29.3630  29.3750  29.3871  29.3992
 PRANDTL NUMBER    0.7187   0.7185   0.7183   0.7182   0.7180   0.7178   0.7176   0.7174

 MASS FRACTIONS

 *H               0.73438  0.73588  0.73738  0.73886  0.74034  0.74181  0.74328  0.74473
 *H+              0.00007  0.00007  0.00007  0.00007  0.00007  0.00007  0.00008  0.00008
 *H-              0.00001  0.00001  0.00001  0.00001  0.00001  0.00001  0.00001  0.00001
 *H2              0.26551  0.26401  0.26251  0.26102  0.25954  0.25807  0.25660  0.25515
 *H2+             0.00003  0.00003  0.00003  0.00003  0.00003  0.00003  0.00003  0.00003

  * THERMODYNAMIC PROPERTIES FITTED TO 20000.K

 NOTE. WEIGHT FRACTION OF FUEL IN TOTAL FUELS AND OF OXIDANT IN TOTAL OXIDANTS









               THERMODYNAMIC EQUILIBRIUM PROPERTIES AT ASSIGNED

                           TEMPERATURE AND PRESSURE

 CASE =                

             REACTANT                    WT FRACTION      ENERGY      TEMP
                                          (SEE NOTE)     KJ/KG-MOL      K  
 FUEL        H2                           1.0000000         0.000      0.000
 OXIDANT     H2                           1.0000000         0.000      0.000

 O/F=    1.00000  %FUEL= 50.000000  R,EQ.RATIO= 0.000000  PHI,EQ.RATIO=-1.000000

 THERMODYNAMIC PROPERTIES

 P, BAR            540.00   600.00   600.00   600.00   600.00   600.00   600.00   600.00
 T, K             7990.00  7850.00  7860.00  7870.00  7880.00  7890.00  7900.00  7910.00
 RHO, KG/CU M    9.3826-1 1.0856 0 1.0832 0 1.0808 0 1.0785 0 1.0761 0 1.0738 0 1.0714 0
 H, KJ/KG        316669.9 304688.6 305264.2 305837.9 306409.9 306980.2 307548.7 308115.4
 U, KJ/KG        259116.7 249420.2 249873.5 250325.2 250775.2 251223.5 251670.2 252115.3
 G, KJ/KG       -671988.4-648878.4-650093.5-651309.3-652525.9-653743.1-654961.2-656179.9
 S, KJ/(KG)(K)   123.7370 121.4735 121.5468 121.6197 121.6924 121.7647 121.8367 121.9084

 M, (1/n)           1.154    1.181    1.180    1.179    1.178    1.177    1.175    1.174
 (dLV/dLP)t      -1.09473 -1.10364 -1.10331 -1.10298 -1.10265 -1.10231 -1.10198 -1.10164
 (dLV/dLT)p        1.6622   1.7371   1.7338   1.7306   1.7273   1.7240   1.7207   1.7175
 Cp, KJ/(KG)(K)   54.0713  57.6423  57.4658  57.2893  57.1129  56.9367  56.7606  56.5847
 GAMMAs            1.3761   1.3604   1.3612   1.3619   1.3627   1.3635   1.3643   1.3650
 SON VEL,M/SEC     8899.4   8671.1   8683.1   8695.1   8707.1   8719.1   8731.1   8743.1

 TRANSPORT PROPERTIES (GASES ONLY)
   CONDUCTIVITY IN UNITS OF MILLIWATTS/(CM)(K)

 VISC,MILLIPOISE   1.0226   1.0310   1.0312   1.0314   1.0317   1.0319   1.0321   1.0324

  WITH EQUILIBRIUM REACTIONS

 Cp, KJ/(KG)(K)   54.0713  57.6423  57.4658  57.2893  57.1129  56.9367  56.7606  56.5847
 CONDUCTIVITY     87.5528  94.3336  94.0490  93.7647  93.4808  93.1972  92.9141  92.6313
 PRANDTL NUMBER    0.6316   0.6300   0.6301   0.6302   0.6303   0.6304   0.6305   0.6306

  WITH FROZEN REACTIONS

 Cp, KJ/(KG)(K)   20.6289  20.6492  20.6476  20.6461  20.6446  20.6431  20.6416  20.6401
 CONDUCTIVITY     29.4115  29.5076  29.5186  29.5297  29.5409  29.5521  29.5633  29.5746
 PRANDTL NUMBER    0.7173   0.7215   0.7213   0.7211   0.7210   0.7208   0.7207   0.7205

 MASS FRACTIONS

 *H               0.74618  0.70682  0.70842  0.71000  0.71158  0.71316  0.71472  0.71628
 *H+              0.00008  0.00006  0.00006  0.00006  0.00006  0.00006  0.00006  0.00006
 *H-              0.00001  0.00001  0.00001  0.00001  0.00001  0.00001  0.00001  0.00001
 *H2              0.25370  0.29308  0.29149  0.28990  0.28831  0.28674  0.28517  0.28361
 *H2+             0.00003  0.00003  0.00003  0.00003  0.00003  0.00003  0.00003  0.00003

  * THERMODYNAMIC PROPERTIES FITTED TO 20000.K

 NOTE. WEIGHT FRACTION OF FUEL IN TOTAL FUELS AND OF OXIDANT IN TOTAL OXIDANTS









               THERMODYNAMIC EQUILIBRIUM PROPERTIES AT ASSIGNED

                           TEMPERATURE AND PRESSURE

 CASE =                

             REACTANT                    WT FRACTION      ENERGY      TEMP
                                          (SEE NOTE)     KJ/KG-MOL      K  
 FUEL        H2                           1.0000000         0.000      0.000
 OXIDANT     H2                           1.0000000         0.000      0.000

 O/F=    1.00000  %FUEL= 50.000000  R,EQ.RATIO= 0.000000  PHI,EQ.RATIO=-1.000000

 THERMODYNAMIC PROPERTIES

 P, BAR            600.00   600.00   600.00   600.00   600.00   600.00   600.00   600.00
 T, K             7920.00  7930.00  7940.00  7950.00  7960.00  7970.00  7980.00  7990.00
 RHO, KG/CU M    1.0691 0 1.0668 0 1.0645 0 1.0622 0 1.0599 0 1.0577 0 1.0554 0 1.0532 0
 H, KJ/KG        308680.4 309243.6 309805.0 310364.7 310922.7 311478.9 312033.4 312586.1
 U, KJ/KG        252558.7 253000.6 253440.7 253879.3 254316.2 254751.5 255185.1 255617.2
 G, KJ/KG       -657399.3-658619.5-659840.3-661061.9-662284.2-663507.1-664730.8-665955.2
 S, KJ/(KG)(K)   121.9798 122.0508 122.1216 122.1920 122.2622 122.3320 122.4015 122.4707

 M, (1/n)           1.173    1.172    1.171    1.170    1.169    1.168    1.167    1.166
 (dLV/dLP)t      -1.10131 -1.10097 -1.10063 -1.10030 -1.09996 -1.09962 -1.09928 -1.09894
 (dLV/dLT)p        1.7142   1.7109   1.7077   1.7044   1.7012   1.6979   1.6947   1.6915
 Cp, KJ/(KG)(K)   56.4090  56.2335  56.0581  55.8830  55.7081  55.5335  55.3591  55.1850
 GAMMAs            1.3658   1.3666   1.3673   1.3681   1.3689   1.3697   1.3704   1.3712
 SON VEL,M/SEC     8755.0   8767.0   8778.9   8790.8   8802.7   8814.6   8826.5   8838.4

 TRANSPORT PROPERTIES (GASES ONLY)
   CONDUCTIVITY IN UNITS OF MILLIWATTS/(CM)(K)

 VISC,MILLIPOISE   1.0326   1.0328   1.0331   1.0333   1.0336   1.0338   1.0340   1.0343

  WITH EQUILIBRIUM REACTIONS

 Cp, KJ/(KG)(K)   56.4090  56.2335  56.0581  55.8830  55.7081  55.5335  55.3591  55.1850
 CONDUCTIVITY     92.3490  92.0671  91.7856  91.5047  91.2243  90.9444  90.6650  90.3862
 PRANDTL NUMBER    0.6307   0.6308   0.6310   0.6311   0.6312   0.6313   0.6314   0.6315

  WITH FROZEN REACTIONS

 Cp, KJ/(KG)(K)   20.6385  20.6370  20.6356  20.6341  20.6326  20.6311  20.6296  20.6282
 CONDUCTIVITY     29.5860  29.5975  29.6090  29.6205  29.6322  29.6438  29.6556  29.6674
 PRANDTL NUMBER    0.7203   0.7202   0.7200   0.7198   0.7197   0.7195   0.7193   0.7191

 MASS FRACTIONS

 *H               0.71783  0.71937  0.72091  0.72243  0.72395  0.72546  0.72697  0.72846
 *H+              0.00006  0.00007  0.00007  0.00007  0.00007  0.00007  0.00007  0.00007
 *H-              0.00001  0.00001  0.00001  0.00001  0.00001  0.00001  0.00001  0.00001
 *H2              0.28206  0.28052  0.27898  0.27745  0.27593  0.27442  0.27291  0.27142
 *H2+             0.00003  0.00003  0.00003  0.00003  0.00003  0.00003  0.00003  0.00003

  * THERMODYNAMIC PROPERTIES FITTED TO 20000.K

 NOTE. WEIGHT FRACTION OF FUEL IN TOTAL FUELS AND OF OXIDANT IN TOTAL OXIDANTS









               THERMODYNAMIC EQUILIBRIUM PROPERTIES AT ASSIGNED

                           TEMPERATURE AND PRESSURE

 CASE =                

             REACTANT                    WT FRACTION      ENERGY      TEMP
                                          (SEE NOTE)     KJ/KG-MOL      K  
 FUEL        H2                           1.0000000         0.000      0.000
 OXIDANT     H2                           1.0000000         0.000      0.000

 O/F=    1.00000  %FUEL= 50.000000  R,EQ.RATIO= 0.000000  PHI,EQ.RATIO=-1.000000

 THERMODYNAMIC PROPERTIES

 P, BAR            670.00   670.00   670.00   670.00   670.00   670.00   670.00   670.00
 T, K             7850.00  7860.00  7870.00  7880.00  7890.00  7900.00  7910.00  7920.00
 RHO, KG/CU M    1.2265 0 1.2237 0 1.2210 0 1.2183 0 1.2156 0 1.2129 0 1.2102 0 1.2075 0
 H, KJ/KG        300134.4 300719.4 301302.6 301884.2 302464.1 303042.3 303618.9 304193.8
 U, KJ/KG        245506.4 245968.6 246429.2 246888.2 247345.7 247801.5 248255.8 248708.6
 G, KJ/KG       -642814.8-644016.4-645218.7-646421.8-647625.6-648830.1-650035.4-651241.4
 S, KJ/(KG)(K)   120.1209 120.1954 120.2695 120.3434 120.4169 120.4902 120.5631 120.6357

 M, (1/n)           1.195    1.194    1.192    1.191    1.190    1.189    1.188    1.187
 (dLV/dLP)t      -1.10754 -1.10723 -1.10692 -1.10661 -1.10630 -1.10599 -1.10567 -1.10536
 (dLV/dLT)p        1.7647   1.7616   1.7584   1.7553   1.7521   1.7490   1.7459   1.7427
 Cp, KJ/(KG)(K)   58.5764  58.4091  58.2418  58.0745  57.9071  57.7397  57.5723  57.4049
 GAMMAs            1.3558   1.3566   1.3573   1.3581   1.3588   1.3596   1.3603   1.3611
 SON VEL,M/SEC     8606.2   8618.2   8630.2   8642.3   8654.2   8666.2   8678.2   8690.2

 TRANSPORT PROPERTIES (GASES ONLY)
   CONDUCTIVITY IN UNITS OF MILLIWATTS/(CM)(K)

 VISC,MILLIPOISE   1.0430   1.0433   1.0435   1.0438   1.0440   1.0443   1.0445   1.0448

  WITH EQUILIBRIUM REACTIONS

 Cp, KJ/(KG)(K)   58.5764  58.4091  58.2418  58.0745  57.9071  57.7397  57.5723  57.4049
 CONDUCTIVITY     97.0442  96.7709  96.4976  96.2245  95.9514  95.6784  95.4056  95.1330
 PRANDTL NUMBER    0.6296   0.6297   0.6298   0.6300   0.6301   0.6302   0.6303   0.6304

  WITH FROZEN REACTIONS

 Cp, KJ/(KG)(K)   20.6499  20.6483  20.6466  20.6450  20.6434  20.6418  20.6401  20.6385
 CONDUCTIVITY     29.7857  29.7966  29.8075  29.8184  29.8294  29.8404  29.8515  29.8626
 PRANDTL NUMBER    0.7231   0.7230   0.7228   0.7227   0.7225   0.7224   0.7222   0.7221

 MASS FRACTIONS

 *H               0.68705  0.68869  0.69032  0.69194  0.69356  0.69517  0.69677  0.69836
 *H+              0.00005  0.00005  0.00006  0.00006  0.00006  0.00006  0.00006  0.00006
 *H-              0.00001  0.00001  0.00001  0.00001  0.00001  0.00001  0.00001  0.00001
 *H2              0.31285  0.31121  0.30958  0.30796  0.30634  0.30473  0.30313  0.30153
 *H2+             0.00003  0.00003  0.00003  0.00003  0.00003  0.00003  0.00003  0.00003

  * THERMODYNAMIC PROPERTIES FITTED TO 20000.K

 NOTE. WEIGHT FRACTION OF FUEL IN TOTAL FUELS AND OF OXIDANT IN TOTAL OXIDANTS









               THERMODYNAMIC EQUILIBRIUM PROPERTIES AT ASSIGNED

                           TEMPERATURE AND PRESSURE

 CASE =                

             REACTANT                    WT FRACTION      ENERGY      TEMP
                                          (SEE NOTE)     KJ/KG-MOL      K  
 FUEL        H2                           1.0000000         0.000      0.000
 OXIDANT     H2                           1.0000000         0.000      0.000

 O/F=    1.00000  %FUEL= 50.000000  R,EQ.RATIO= 0.000000  PHI,EQ.RATIO=-1.000000

 THERMODYNAMIC PROPERTIES

 P, BAR            670.00   670.00   670.00   670.00   670.00   670.00   670.00   740.00
 T, K             7930.00  7940.00  7950.00  7960.00  7970.00  7980.00  7990.00  7850.00
 RHO, KG/CU M    1.2049 0 1.2022 0 1.1996 0 1.1970 0 1.1944 0 1.1918 0 1.1893 0 1.3694 0
 H, KJ/KG        304767.0 305338.5 305908.4 306476.6 307043.1 307608.0 308171.1 295942.6
 U, KJ/KG        249159.8 249609.4 250057.4 250503.9 250948.8 251392.2 251834.0 241904.0
 G, KJ/KG       -652448.1-653655.5-654863.7-656072.6-657282.1-658492.4-659703.5-637415.5
 S, KJ/(KG)(K)   120.7081 120.7801 120.8518 120.9233 120.9944 121.0652 121.1357 118.8991

 M, (1/n)           1.186    1.185    1.184    1.182    1.181    1.180    1.179    1.208
 (dLV/dLP)t      -1.10504 -1.10473 -1.10441 -1.10409 -1.10377 -1.10345 -1.10313 -1.11077
 (dLV/dLT)p        1.7396   1.7364   1.7333   1.7301   1.7270   1.7238   1.7207   1.7877
 Cp, KJ/(KG)(K)   57.2376  57.0703  56.9030  56.7359  56.5688  56.4018  56.2350  59.2884
 GAMMAs            1.3618   1.3626   1.3633   1.3641   1.3648   1.3656   1.3663   1.3519
 SON VEL,M/SEC     8702.1   8714.0   8726.0   8737.9   8749.8   8761.6   8773.5   8547.2

 TRANSPORT PROPERTIES (GASES ONLY)
   CONDUCTIVITY IN UNITS OF MILLIWATTS/(CM)(K)

 VISC,MILLIPOISE   1.0450   1.0453   1.0455   1.0458   1.0460   1.0463   1.0465   1.0538

  WITH EQUILIBRIUM REACTIONS

 Cp, KJ/(KG)(K)   57.2376  57.0703  56.9030  56.7359  56.5688  56.4018  56.2350  59.2884
 CONDUCTIVITY     94.8606  94.5883  94.3163  94.0446  93.7731  93.5020  93.2311  99.3207
 PRANDTL NUMBER    0.6306   0.6307   0.6308   0.6309   0.6310   0.6311   0.6313   0.6290

  WITH FROZEN REACTIONS

 Cp, KJ/(KG)(K)   20.6369  20.6353  20.6337  20.6321  20.6306  20.6290  20.6274  20.6506
 CONDUCTIVITY     29.8738  29.8850  29.8963  29.9076  29.9190  29.9304  29.9419  30.0391
 PRANDTL NUMBER    0.7219   0.7218   0.7216   0.7215   0.7213   0.7211   0.7210   0.7244

 MASS FRACTIONS

 *H               0.69995  0.70153  0.70310  0.70466  0.70622  0.70777  0.70931  0.66886
 *H+              0.00006  0.00006  0.00006  0.00006  0.00006  0.00007  0.00007  0.00005
 *H-              0.00001  0.00001  0.00001  0.00001  0.00001  0.00001  0.00001  0.00001
 *H2              0.29995  0.29837  0.29679  0.29523  0.29367  0.29212  0.29057  0.33105
 *H2+             0.00003  0.00003  0.00003  0.00003  0.00003  0.00003  0.00003  0.00003

  * THERMODYNAMIC PROPERTIES FITTED TO 20000.K

 NOTE. WEIGHT FRACTION OF FUEL IN TOTAL FUELS AND OF OXIDANT IN TOTAL OXIDANTS









               THERMODYNAMIC EQUILIBRIUM PROPERTIES AT ASSIGNED

                           TEMPERATURE AND PRESSURE

 CASE =                

             REACTANT                    WT FRACTION      ENERGY      TEMP
                                          (SEE NOTE)     KJ/KG-MOL      K  
 FUEL        H2                           1.0000000         0.000      0.000
 OXIDANT     H2                           1.0000000         0.000      0.000

 O/F=    1.00000  %FUEL= 50.000000  R,EQ.RATIO= 0.000000  PHI,EQ.RATIO=-1.000000

 THERMODYNAMIC PROPERTIES

 P, BAR            740.00   740.00   740.00   740.00   740.00   740.00   740.00   740.00
 T, K             7860.00  7870.00  7880.00  7890.00  7900.00  7910.00  7920.00  7930.00
 RHO, KG/CU M    1.3663 0 1.3632 0 1.3601 0 1.3570 0 1.3540 0 1.3510 0 1.3480 0 1.3450 0
 H, KJ/KG        296534.7 297125.2 297714.1 298301.5 298887.2 299471.4 300054.0 300635.0
 U, KJ/KG        242373.1 242840.7 243306.7 243771.3 244234.4 244696.0 245156.1 245614.7
 G, KJ/KG       -638604.8-639795.0-640985.8-642177.4-643369.8-644562.9-645756.7-646951.3
 S, KJ/(KG)(K)   118.9745 119.0496 119.1244 119.1988 119.2730 119.3469 119.4205 119.4939

 M, (1/n)           1.207    1.205    1.204    1.203    1.202    1.201    1.200    1.198
 (dLV/dLP)t      -1.11049 -1.11021 -1.10992 -1.10963 -1.10934 -1.10905 -1.10876 -1.10847
 (dLV/dLT)p        1.7847   1.7817   1.7787   1.7757   1.7727   1.7697   1.7666   1.7636
 Cp, KJ/(KG)(K)   59.1306  58.9726  58.8144  58.6561  58.4976  58.3390  58.1803  58.0214
 GAMMAs            1.3526   1.3534   1.3541   1.3548   1.3555   1.3563   1.3570   1.3577
 SON VEL,M/SEC     8559.2   8571.2   8583.2   8595.2   8607.2   8619.1   8631.1   8643.0

 TRANSPORT PROPERTIES (GASES ONLY)
   CONDUCTIVITY IN UNITS OF MILLIWATTS/(CM)(K)

 VISC,MILLIPOISE   1.0541   1.0543   1.0546   1.0549   1.0552   1.0554   1.0557   1.0560

  WITH EQUILIBRIUM REACTIONS

 Cp, KJ/(KG)(K)   59.1306  58.9726  58.8144  58.6561  58.4976  58.3390  58.1803  58.0214
 CONDUCTIVITY     99.0598  98.7988  98.5375  98.2761  98.0147  97.7531  97.4914  97.2298
 PRANDTL NUMBER    0.6292   0.6293   0.6295   0.6296   0.6297   0.6299   0.6300   0.6301

  WITH FROZEN REACTIONS

 Cp, KJ/(KG)(K)   20.6488  20.6471  20.6454  20.6437  20.6420  20.6402  20.6385  20.6368
 CONDUCTIVITY     30.0499  30.0607  30.0716  30.0825  30.0934  30.1044  30.1154  30.1264
 PRANDTL NUMBER    0.7243   0.7242   0.7240   0.7239   0.7238   0.7236   0.7235   0.7233

 MASS FRACTIONS

 *H               0.67053  0.67219  0.67384  0.67549  0.67713  0.67877  0.68039  0.68201
 *H+              0.00005  0.00005  0.00005  0.00005  0.00005  0.00006  0.00006  0.00006
 *H-              0.00001  0.00001  0.00001  0.00001  0.00001  0.00001  0.00001  0.00001
 *H2              0.32938  0.32772  0.32606  0.32441  0.32277  0.32113  0.31950  0.31788
 *H2+             0.00003  0.00003  0.00003  0.00003  0.00003  0.00003  0.00003  0.00003

  * THERMODYNAMIC PROPERTIES FITTED TO 20000.K

 NOTE. WEIGHT FRACTION OF FUEL IN TOTAL FUELS AND OF OXIDANT IN TOTAL OXIDANTS









               THERMODYNAMIC EQUILIBRIUM PROPERTIES AT ASSIGNED

                           TEMPERATURE AND PRESSURE

 CASE =                

             REACTANT                    WT FRACTION      ENERGY      TEMP
                                          (SEE NOTE)     KJ/KG-MOL      K  
 FUEL        H2                           1.0000000         0.000      0.000
 OXIDANT     H2                           1.0000000         0.000      0.000

 O/F=    1.00000  %FUEL= 50.000000  R,EQ.RATIO= 0.000000  PHI,EQ.RATIO=-1.000000

 THERMODYNAMIC PROPERTIES

 P, BAR            740.00   740.00   740.00   740.00   740.00   740.00   825.00   825.00
 T, K             7940.00  7950.00  7960.00  7970.00  7980.00  7990.00  7850.00  7860.00
 RHO, KG/CU M    1.3420 0 1.3390 0 1.3361 0 1.3331 0 1.3302 0 1.3273 0 1.5455 0 1.5419 0
 H, KJ/KG        301214.4 301792.3 302368.5 302943.2 303516.2 304087.7 291274.4 291872.8
 U, KJ/KG        246071.8 246527.4 246981.5 247434.1 247885.2 248334.9 237892.3 238367.7
 G, KJ/KG       -648146.6-649342.6-650539.4-651736.9-652935.1-654134.0-631575.3-632751.3
 S, KJ/(KG)(K)   119.5669 119.6396 119.7120 119.7842 119.8561 119.9276 117.5605 117.6367

 M, (1/n)           1.197    1.196    1.195    1.194    1.193    1.192    1.223    1.221
 (dLV/dLP)t      -1.10817 -1.10788 -1.10758 -1.10728 -1.10698 -1.10668 -1.11399 -1.11374
 (dLV/dLT)p        1.7606   1.7576   1.7545   1.7515   1.7485   1.7455   1.8105   1.8077
 Cp, KJ/(KG)(K)   57.8625  57.7035  57.5444  57.3853  57.2262  57.0670  59.9191  59.7726
 GAMMAs            1.3584   1.3592   1.3599   1.3606   1.3614   1.3621   1.3478   1.3485
 SON VEL,M/SEC     8655.0   8666.9   8678.8   8690.7   8702.6   8714.4   8482.2   8494.2

 TRANSPORT PROPERTIES (GASES ONLY)
   CONDUCTIVITY IN UNITS OF MILLIWATTS/(CM)(K)

 VISC,MILLIPOISE   1.0562   1.0565   1.0568   1.0570   1.0573   1.0576   1.0654   1.0657

  WITH EQUILIBRIUM REACTIONS

 Cp, KJ/(KG)(K)   57.8625  57.7035  57.5444  57.3853  57.2262  57.0670  59.9191  59.7726
 CONDUCTIVITY     96.9681  96.7064  96.4447  96.1831  95.9216  95.6601 101.6092 101.3640
 PRANDTL NUMBER    0.6303   0.6304   0.6305   0.6307   0.6308   0.6309   0.6283   0.6284

  WITH FROZEN REACTIONS

 Cp, KJ/(KG)(K)   20.6351  20.6334  20.6317  20.6301  20.6284  20.6267  20.6513  20.6495
 CONDUCTIVITY     30.1375  30.1486  30.1598  30.1710  30.1823  30.1936  30.3179  30.3287
 PRANDTL NUMBER    0.7232   0.7231   0.7229   0.7228   0.7226   0.7225   0.7257   0.7256

 MASS FRACTIONS

 *H               0.68363  0.68523  0.68683  0.68843  0.69001  0.69159  0.64859  0.65029
 *H+              0.00006  0.00006  0.00006  0.00006  0.00006  0.00006  0.00005  0.00005
 *H-              0.00001  0.00001  0.00001  0.00001  0.00001  0.00002  0.00001  0.00001
 *H2              0.31627  0.31466  0.31306  0.31146  0.30988  0.30830  0.35132  0.34962
 *H2+             0.00003  0.00003  0.00003  0.00003  0.00003  0.00003  0.00003  0.00003

  * THERMODYNAMIC PROPERTIES FITTED TO 20000.K

 NOTE. WEIGHT FRACTION OF FUEL IN TOTAL FUELS AND OF OXIDANT IN TOTAL OXIDANTS









               THERMODYNAMIC EQUILIBRIUM PROPERTIES AT ASSIGNED

                           TEMPERATURE AND PRESSURE

 CASE =                

             REACTANT                    WT FRACTION      ENERGY      TEMP
                                          (SEE NOTE)     KJ/KG-MOL      K  
 FUEL        H2                           1.0000000         0.000      0.000
 OXIDANT     H2                           1.0000000         0.000      0.000

 O/F=    1.00000  %FUEL= 50.000000  R,EQ.RATIO= 0.000000  PHI,EQ.RATIO=-1.000000

 THERMODYNAMIC PROPERTIES

 P, BAR            825.00   825.00   825.00   825.00   825.00   825.00   825.00   825.00
 T, K             7870.00  7880.00  7890.00  7900.00  7910.00  7920.00  7930.00  7940.00
 RHO, KG/CU M    1.5384 0 1.5349 0 1.5314 0 1.5279 0 1.5244 0 1.5210 0 1.5175 0 1.5141 0
 H, KJ/KG        292469.8 293065.3 293659.4 294252.0 294843.1 295432.7 296020.8 296607.5
 U, KJ/KG        238841.6 239314.2 239785.4 240255.1 240723.5 241190.4 241655.9 242120.1
 G, KJ/KG       -633928.0-635105.5-636283.8-637462.8-638642.5-639823.0-641004.3-642186.3
 S, KJ/(KG)(K)   117.7126 117.7882 117.8635 117.9386 118.0134 118.0878 118.1621 118.2360

 M, (1/n)           1.220    1.219    1.218    1.216    1.215    1.214    1.213    1.212
 (dLV/dLP)t      -1.11348 -1.11322 -1.11297 -1.11271 -1.11244 -1.11218 -1.11191 -1.11164
 (dLV/dLT)p        1.8049   1.8021   1.7992   1.7964   1.7935   1.7907   1.7878   1.7849
 Cp, KJ/(KG)(K)   59.6258  59.4787  59.3312  59.1835  59.0355  58.8873  58.7388  58.5901
 GAMMAs            1.3492   1.3499   1.3506   1.3513   1.3520   1.3527   1.3534   1.3541
 SON VEL,M/SEC     8506.1   8518.1   8530.1   8542.0   8554.0   8565.9   8577.8   8589.7

 TRANSPORT PROPERTIES (GASES ONLY)
   CONDUCTIVITY IN UNITS OF MILLIWATTS/(CM)(K)

 VISC,MILLIPOISE   1.0660   1.0663   1.0666   1.0669   1.0672   1.0675   1.0678   1.0681

  WITH EQUILIBRIUM REACTIONS

 Cp, KJ/(KG)(K)   59.6258  59.4787  59.3312  59.1835  59.0355  58.8873  58.7388  58.5901
 CONDUCTIVITY    101.1185 100.8725 100.6262 100.3795 100.1325  99.8852  99.6375  99.3897
 PRANDTL NUMBER    0.6286   0.6287   0.6289   0.6290   0.6292   0.6293   0.6295   0.6296

  WITH FROZEN REACTIONS

 Cp, KJ/(KG)(K)   20.6477  20.6458  20.6440  20.6422  20.6404  20.6385  20.6367  20.6349
 CONDUCTIVITY     30.3396  30.3505  30.3615  30.3724  30.3834  30.3944  30.4054  30.4165
 PRANDTL NUMBER    0.7255   0.7253   0.7252   0.7251   0.7250   0.7249   0.7247   0.7246

 MASS FRACTIONS

 *H               0.65198  0.65366  0.65534  0.65701  0.65868  0.66033  0.66199  0.66363
 *H+              0.00005  0.00005  0.00005  0.00005  0.00005  0.00005  0.00005  0.00005
 *H-              0.00001  0.00001  0.00001  0.00001  0.00001  0.00001  0.00001  0.00001
 *H2              0.34793  0.34624  0.34456  0.34289  0.34123  0.33957  0.33791  0.33627
 *H2+             0.00003  0.00003  0.00003  0.00003  0.00003  0.00003  0.00003  0.00003

  * THERMODYNAMIC PROPERTIES FITTED TO 20000.K

 NOTE. WEIGHT FRACTION OF FUEL IN TOTAL FUELS AND OF OXIDANT IN TOTAL OXIDANTS









               THERMODYNAMIC EQUILIBRIUM PROPERTIES AT ASSIGNED

                           TEMPERATURE AND PRESSURE

 CASE =                

             REACTANT                    WT FRACTION      ENERGY      TEMP
                                          (SEE NOTE)     KJ/KG-MOL      K  
 FUEL        H2                           1.0000000         0.000      0.000
 OXIDANT     H2                           1.0000000         0.000      0.000

 O/F=    1.00000  %FUEL= 50.000000  R,EQ.RATIO= 0.000000  PHI,EQ.RATIO=-1.000000

 THERMODYNAMIC PROPERTIES

 P, BAR            825.00   825.00   825.00   825.00   825.00   910.00   910.00   910.00
 T, K             7950.00  7960.00  7970.00  7980.00  7990.00  7850.00  7860.00  7870.00
 RHO, KG/CU M    1.5107 0 1.5073 0 1.5040 0 1.5006 0 1.4973 0 1.7241 0 1.7201 0 1.7161 0
 H, KJ/KG        297192.6 297776.3 298358.5 298939.1 299518.3 287006.7 287609.5 288211.0
 U, KJ/KG        242582.8 243044.1 243503.9 243962.4 244419.4 234224.8 234704.7 235183.3
 G, KJ/KG       -643369.0-644552.5-645736.7-646921.6-648107.3-626369.9-627533.9-628698.5
 S, KJ/(KG)(K)   118.3096 118.3830 118.4561 118.5289 118.6014 116.3537 116.4305 116.5069

 M, (1/n)           1.210    1.209    1.208    1.207    1.206    1.237    1.235    1.234
 (dLV/dLP)t      -1.11138 -1.11110 -1.11083 -1.11056 -1.11028 -1.11657 -1.11635 -1.11612
 (dLV/dLT)p        1.7821   1.7792   1.7763   1.7735   1.7706   1.8289   1.8262   1.8236
 Cp, KJ/(KG)(K)   58.4412  58.2921  58.1428  57.9933  57.8437  60.3504  60.2148  60.0787
 GAMMAs            1.3548   1.3556   1.3563   1.3570   1.3577   1.3442   1.3449   1.3456
 SON VEL,M/SEC     8601.6   8613.5   8625.4   8637.3   8649.1   8423.2   8435.2   8447.1

 TRANSPORT PROPERTIES (GASES ONLY)
   CONDUCTIVITY IN UNITS OF MILLIWATTS/(CM)(K)

 VISC,MILLIPOISE   1.0684   1.0687   1.0690   1.0693   1.0696   1.0756   1.0759   1.0763

  WITH EQUILIBRIUM REACTIONS

 Cp, KJ/(KG)(K)   58.4412  58.2921  58.1428  57.9933  57.8437  60.3504  60.2148  60.0787
 CONDUCTIVITY     99.1415  98.8932  98.6447  98.3960  98.1471 103.4732 103.2441 103.0143
 PRANDTL NUMBER    0.6298   0.6299   0.6301   0.6302   0.6304   0.6273   0.6275   0.6277

  WITH FROZEN REACTIONS

 Cp, KJ/(KG)(K)   20.6331  20.6313  20.6295  20.6277  20.6259  20.6520  20.6501  20.6482
 CONDUCTIVITY     30.4276  30.4387  30.4499  30.4611  30.4723  30.5692  30.5803  30.5913
 PRANDTL NUMBER    0.7245   0.7243   0.7242   0.7241   0.7240   0.7267   0.7266   0.7264

 MASS FRACTIONS

 *H               0.66527  0.66690  0.66853  0.67015  0.67176  0.63006  0.63178  0.63349
 *H+              0.00005  0.00006  0.00006  0.00006  0.00006  0.00004  0.00004  0.00004
 *H-              0.00001  0.00001  0.00001  0.00002  0.00002  0.00001  0.00001  0.00001
 *H2              0.33463  0.33299  0.33136  0.32974  0.32813  0.36985  0.36813  0.36642
 *H2+             0.00003  0.00003  0.00003  0.00003  0.00003  0.00003  0.00003  0.00003

  * THERMODYNAMIC PROPERTIES FITTED TO 20000.K

 NOTE. WEIGHT FRACTION OF FUEL IN TOTAL FUELS AND OF OXIDANT IN TOTAL OXIDANTS









               THERMODYNAMIC EQUILIBRIUM PROPERTIES AT ASSIGNED

                           TEMPERATURE AND PRESSURE

 CASE =                

             REACTANT                    WT FRACTION      ENERGY      TEMP
                                          (SEE NOTE)     KJ/KG-MOL      K  
 FUEL        H2                           1.0000000         0.000      0.000
 OXIDANT     H2                           1.0000000         0.000      0.000

 O/F=    1.00000  %FUEL= 50.000000  R,EQ.RATIO= 0.000000  PHI,EQ.RATIO=-1.000000

 THERMODYNAMIC PROPERTIES

 P, BAR            910.00   910.00   910.00   910.00   910.00   910.00   910.00   910.00
 T, K             7880.00  7890.00  7900.00  7910.00  7920.00  7930.00  7940.00  7950.00
 RHO, KG/CU M    1.7121 0 1.7082 0 1.7042 0 1.7003 0 1.6965 0 1.6926 0 1.6887 0 1.6849 0
 H, KJ/KG        288811.1 289409.8 290007.2 290603.2 291197.8 291791.0 292382.9 292973.3
 U, KJ/KG        235660.5 236136.5 236611.1 237084.4 237556.4 238027.0 238496.4 238964.4
 G, KJ/KG       -629864.0-631030.2-632197.2-633364.9-634533.4-635702.6-636872.6-638043.3
 S, KJ/(KG)(K)   116.5831 116.6591 116.7347 116.8101 116.8852 116.9601 117.0347 117.1090

 M, (1/n)           1.233    1.231    1.230    1.229    1.228    1.226    1.225    1.224
 (dLV/dLP)t      -1.11589 -1.11566 -1.11543 -1.11519 -1.11496 -1.11472 -1.11448 -1.11423
 (dLV/dLT)p        1.8209   1.8182   1.8156   1.8129   1.8102   1.8075   1.8048   1.8021
 Cp, KJ/(KG)(K)   59.9422  59.8054  59.6681  59.5304  59.3924  59.2540  59.1153  58.9763
 GAMMAs            1.3463   1.3470   1.3476   1.3483   1.3490   1.3497   1.3504   1.3511
 SON VEL,M/SEC     8459.0   8471.0   8482.9   8494.8   8506.7   8518.6   8530.5   8542.3

 TRANSPORT PROPERTIES (GASES ONLY)
   CONDUCTIVITY IN UNITS OF MILLIWATTS/(CM)(K)

 VISC,MILLIPOISE   1.0766   1.0769   1.0773   1.0776   1.0779   1.0783   1.0786   1.0789

  WITH EQUILIBRIUM REACTIONS

 Cp, KJ/(KG)(K)   59.9422  59.8054  59.6681  59.5304  59.3924  59.2540  59.1153  58.9763
 CONDUCTIVITY    102.7840 102.5530 102.3215 102.0894 101.8568 101.6238 101.3902 101.1562
 PRANDTL NUMBER    0.6279   0.6280   0.6282   0.6284   0.6285   0.6287   0.6289   0.6290

  WITH FROZEN REACTIONS

 Cp, KJ/(KG)(K)   20.6462  20.6443  20.6424  20.6405  20.6386  20.6366  20.6347  20.6328
 CONDUCTIVITY     30.6024  30.6135  30.6246  30.6357  30.6468  30.6580  30.6692  30.6803
 PRANDTL NUMBER    0.7263   0.7262   0.7261   0.7260   0.7259   0.7258   0.7257   0.7256

 MASS FRACTIONS

 *H               0.63519  0.63689  0.63858  0.64027  0.64195  0.64363  0.64529  0.64696
 *H+              0.00005  0.00005  0.00005  0.00005  0.00005  0.00005  0.00005  0.00005
 *H-              0.00001  0.00001  0.00001  0.00001  0.00001  0.00001  0.00001  0.00001
 *H2              0.36472  0.36302  0.36132  0.35963  0.35795  0.35628  0.35461  0.35294
 *H2+             0.00003  0.00003  0.00003  0.00003  0.00003  0.00003  0.00003  0.00003

  * THERMODYNAMIC PROPERTIES FITTED TO 20000.K

 NOTE. WEIGHT FRACTION OF FUEL IN TOTAL FUELS AND OF OXIDANT IN TOTAL OXIDANTS









               THERMODYNAMIC EQUILIBRIUM PROPERTIES AT ASSIGNED

                           TEMPERATURE AND PRESSURE

 CASE =                

             REACTANT                    WT FRACTION      ENERGY      TEMP
                                          (SEE NOTE)     KJ/KG-MOL      K  
 FUEL        H2                           1.0000000         0.000      0.000
 OXIDANT     H2                           1.0000000         0.000      0.000

 O/F=    1.00000  %FUEL= 50.000000  R,EQ.RATIO= 0.000000  PHI,EQ.RATIO=-1.000000

 THERMODYNAMIC PROPERTIES

 P, BAR            910.00   910.00   910.00   910.00
 T, K             7960.00  7970.00  7980.00  7990.00
 RHO, KG/CU M    1.6811 0 1.6773 0 1.6735 0 1.6698 0
 H, KJ/KG        293562.4 294150.1 294736.3 295321.2
 U, KJ/KG        239431.0 239896.4 240360.4 240823.0
 G, KJ/KG       -639214.8-640387.0-641559.9-642733.6
 S, KJ/(KG)(K)   117.1831 117.2568 117.3304 117.4036

 M, (1/n)           1.223    1.221    1.220    1.219
 (dLV/dLP)t      -1.11399 -1.11374 -1.11350 -1.11325
 (dLV/dLT)p        1.7994   1.7967   1.7940   1.7912
 Cp, KJ/(KG)(K)   58.8369  58.6973  58.5574  58.4171
 GAMMAs            1.3518   1.3525   1.3532   1.3539
 SON VEL,M/SEC     8554.2   8566.1   8577.9   8589.7

 TRANSPORT PROPERTIES (GASES ONLY)
   CONDUCTIVITY IN UNITS OF MILLIWATTS/(CM)(K)

 VISC,MILLIPOISE   1.0792   1.0796   1.0799   1.0802

  WITH EQUILIBRIUM REACTIONS

 Cp, KJ/(KG)(K)   58.8369  58.6973  58.5574  58.4171
 CONDUCTIVITY    100.9218 100.6870 100.4518 100.2162
 PRANDTL NUMBER    0.6292   0.6293   0.6295   0.6297

  WITH FROZEN REACTIONS

 Cp, KJ/(KG)(K)   20.6309  20.6290  20.6271  20.6252
 CONDUCTIVITY     30.6915  30.7028  30.7140  30.7253
 PRANDTL NUMBER    0.7255   0.7254   0.7252   0.7251

 MASS FRACTIONS

 *H               0.64861  0.65026  0.65191  0.65354
 *H+              0.00005  0.00005  0.00005  0.00005
 *H-              0.00001  0.00002  0.00002  0.00002
 *H2              0.35129  0.34963  0.34799  0.34635
 *H2+             0.00003  0.00003  0.00003  0.00003

  * THERMODYNAMIC PROPERTIES FITTED TO 20000.K

 NOTE. WEIGHT FRACTION OF FUEL IN TOTAL FUELS AND OF OXIDANT IN TOTAL OXIDANTS



  
