
 *******************************************************************************

         NASA-GLENN CHEMICAL EQUILIBRIUM PROGRAM CEA2, MAY 21, 2004
                   BY  BONNIE MCBRIDE AND SANFORD GORDON
      REFS: NASA RP-1311, PART I, 1994 AND NASA RP-1311, PART II, 1996

 *******************************************************************************



  prob tp ions
  p,bar= 280.0,310.0,350.0,390.0,440.0,490.0,540.0,600.0,670.0,740.0,825.0,910.0
  t,k= 375,380,385,390,395,400,405,410,415,420,425,430,435,440,445
  
  
  reac
  fuel H2                wt%=100.0000
  oxid H2                wt%=100.0000
  
  output short
  
  output massf
  
  output siunits
  
  output transport
  
 end





               THERMODYNAMIC EQUILIBRIUM PROPERTIES AT ASSIGNED

                           TEMPERATURE AND PRESSURE

 CASE =                

             REACTANT                    WT FRACTION      ENERGY      TEMP
                                          (SEE NOTE)     KJ/KG-MOL      K  
 FUEL        H2                           1.0000000         0.000      0.000
 OXIDANT     H2                           1.0000000         0.000      0.000

 O/F=    1.00000  %FUEL= 50.000000  R,EQ.RATIO= 0.000000  PHI,EQ.RATIO=-1.000000

 THERMODYNAMIC PROPERTIES

 P, BAR            280.00   280.00   280.00   280.00   280.00   280.00   280.00   280.00
 T, K              375.00   380.00   385.00   390.00   395.00   400.00   405.00   410.00
 RHO, KG/CU M    1.8103 1 1.7865 1 1.7633 1 1.7407 1 1.7187 1 1.6972 1 1.6762 1 1.6558 1
 H, KJ/KG         1106.48  1178.78  1251.12  1323.47  1395.84  1468.23  1540.64  1613.06
 U, KJ/KG         -440.21  -388.52  -336.81  -285.08  -233.33  -181.56  -129.78  -77.985
 G, KJ/KG        -15725.9 -15950.8 -16176.6 -16403.4 -16631.2 -16859.8 -17089.4 -17319.8
 S, KJ/(KG)(K)    44.8863  45.0778  45.2669  45.4536  45.6380  45.8201  46.0000  46.1777

 M, (1/n)           2.016    2.016    2.016    2.016    2.016    2.016    2.016    2.016
 (dLV/dLP)t      -1.00000 -1.00000 -1.00000 -1.00000 -1.00000 -1.00000 -1.00000 -1.00000
 (dLV/dLT)p        1.0000   1.0000   1.0000   1.0000   1.0000   1.0000   1.0000   1.0000
 Cp, KJ/(KG)(K)   14.4597  14.4644  14.4687  14.4726  14.4762  14.4795  14.4825  14.4852
 GAMMAs            1.3991   1.3989   1.3987   1.3986   1.3984   1.3983   1.3982   1.3981
 SON VEL,M/SEC     1471.0   1480.7   1490.3   1499.9   1509.4   1518.9   1528.3   1537.6

 TRANSPORT PROPERTIES (GASES ONLY)
   CONDUCTIVITY IN UNITS OF MILLIWATTS/(CM)(K)

 VISC,MILLIPOISE  0.00003  0.00019  0.00115  0.00635  0.02809  0.07140  0.09989  0.10867

  WITH EQUILIBRIUM REACTIONS

 Cp, KJ/(KG)(K)   14.4597  14.4644  14.4687  14.4726  14.4762  14.4795  14.4825  14.4852
 CONDUCTIVITY      0.0002   0.0012   0.0072   0.0410   0.2128   0.8226   1.7280   2.1902
 PRANDTL NUMBER    2.3378   2.3358   2.3214   2.2418   1.9104   1.2569   0.8372   0.7187

  WITH FROZEN REACTIONS

 Cp, KJ/(KG)(K)   14.4597  14.4644  14.4687  14.4726  14.4762  14.4795  14.4825  14.4852
 CONDUCTIVITY      0.0002   0.0012   0.0072   0.0410   0.2128   0.8226   1.7280   2.1902
 PRANDTL NUMBER    2.3378   2.3358   2.3214   2.2418   1.9104   1.2569   0.8372   0.7187

 MASS FRACTIONS

 *H2              1.00000  1.00000  1.00000  1.00000  1.00000  1.00000  1.00000  1.00000

  * THERMODYNAMIC PROPERTIES FITTED TO 20000.K

 NOTE. WEIGHT FRACTION OF FUEL IN TOTAL FUELS AND OF OXIDANT IN TOTAL OXIDANTS









               THERMODYNAMIC EQUILIBRIUM PROPERTIES AT ASSIGNED

                           TEMPERATURE AND PRESSURE

 CASE =                

             REACTANT                    WT FRACTION      ENERGY      TEMP
                                          (SEE NOTE)     KJ/KG-MOL      K  
 FUEL        H2                           1.0000000         0.000      0.000
 OXIDANT     H2                           1.0000000         0.000      0.000

 O/F=    1.00000  %FUEL= 50.000000  R,EQ.RATIO= 0.000000  PHI,EQ.RATIO=-1.000000

 THERMODYNAMIC PROPERTIES

 P, BAR            280.00   280.00   280.00   280.00   280.00   280.00   280.00   310.00
 T, K              415.00   420.00   425.00   430.00   435.00   440.00   445.00   375.00
 RHO, KG/CU M    1.6358 1 1.6164 1 1.5973 1 1.5788 1 1.5606 1 1.5429 1 1.5256 1 2.0043 1
 H, KJ/KG         1685.49  1757.93  1830.39  1902.85  1975.33  2047.81  2120.30  1106.47
 U, KJ/KG         -26.175   25.647   77.480   129.32   181.17   233.03   284.90  -440.21
 G, KJ/KG        -17551.1 -17783.3 -18016.4 -18250.3 -18485.1 -18720.7 -18957.1 -15568.5
 S, KJ/(KG)(K)    46.3533  46.5268  46.6983  46.8678  47.0354  47.2011  47.3649  44.4665

 M, (1/n)           2.016    2.016    2.016    2.016    2.016    2.016    2.016    2.016
 (dLV/dLP)t      -1.00000 -1.00000 -1.00000 -1.00000 -1.00000 -1.00000 -1.00000 -1.00000
 (dLV/dLT)p        1.0000   1.0000   1.0000   1.0000   1.0000   1.0000   1.0000   1.0000
 Cp, KJ/(KG)(K)   14.4877  14.4900  14.4920  14.4939  14.4957  14.4973  14.4988  14.4597
 GAMMAs            1.3980   1.3979   1.3978   1.3978   1.3977   1.3976   1.3976   1.3991
 SON VEL,M/SEC     1546.9   1556.1   1565.3   1574.5   1583.6   1592.6   1601.6   1471.0

 TRANSPORT PROPERTIES (GASES ONLY)
   CONDUCTIVITY IN UNITS OF MILLIWATTS/(CM)(K)

 VISC,MILLIPOISE  0.11127  0.11253  0.11351  0.11443  0.11533  0.11623  0.11713  0.00009

  WITH EQUILIBRIUM REACTIONS

 Cp, KJ/(KG)(K)   14.4877  14.4900  14.4920  14.4939  14.4957  14.4973  14.4988  14.4597
 CONDUCTIVITY      2.3241   2.3677   2.3920   2.4121   2.4313   2.4503   2.4692   0.0005
 PRANDTL NUMBER    0.6936   0.6886   0.6877   0.6876   0.6876   0.6877   0.6878   2.3369

  WITH FROZEN REACTIONS

 Cp, KJ/(KG)(K)   14.4877  14.4900  14.4920  14.4939  14.4957  14.4973  14.4988  14.4597
 CONDUCTIVITY      2.3241   2.3677   2.3920   2.4121   2.4313   2.4503   2.4692   0.0005
 PRANDTL NUMBER    0.6936   0.6886   0.6877   0.6876   0.6876   0.6877   0.6878   2.3369

 MASS FRACTIONS

 *H2              1.00000  1.00000  1.00000  1.00000  1.00000  1.00000  1.00000  1.00000

  * THERMODYNAMIC PROPERTIES FITTED TO 20000.K

 NOTE. WEIGHT FRACTION OF FUEL IN TOTAL FUELS AND OF OXIDANT IN TOTAL OXIDANTS









               THERMODYNAMIC EQUILIBRIUM PROPERTIES AT ASSIGNED

                           TEMPERATURE AND PRESSURE

 CASE =                

             REACTANT                    WT FRACTION      ENERGY      TEMP
                                          (SEE NOTE)     KJ/KG-MOL      K  
 FUEL        H2                           1.0000000         0.000      0.000
 OXIDANT     H2                           1.0000000         0.000      0.000

 O/F=    1.00000  %FUEL= 50.000000  R,EQ.RATIO= 0.000000  PHI,EQ.RATIO=-1.000000

 THERMODYNAMIC PROPERTIES

 P, BAR            310.00   310.00   310.00   310.00   310.00   310.00   310.00   310.00
 T, K              380.00   385.00   390.00   395.00   400.00   405.00   410.00   415.00
 RHO, KG/CU M    1.9779 1 1.9522 1 1.9272 1 1.9028 1 1.8790 1 1.8558 1 1.8332 1 1.8111 1
 H, KJ/KG         1178.78  1251.12  1323.47  1395.84  1468.23  1540.64  1613.06  1685.49
 U, KJ/KG         -388.52  -336.81  -285.08  -233.33  -181.56  -129.78  -77.985  -26.175
 G, KJ/KG        -15791.3 -16015.0 -16239.7 -16465.3 -16691.9 -16919.3 -17147.7 -17376.9
 S, KJ/(KG)(K)    44.6580  44.8471  45.0338  45.2182  45.4003  45.5802  45.7579  45.9335

 M, (1/n)           2.016    2.016    2.016    2.016    2.016    2.016    2.016    2.016
 (dLV/dLP)t      -1.00000 -1.00000 -1.00000 -1.00000 -1.00000 -1.00000 -1.00000 -1.00000
 (dLV/dLT)p        1.0000   1.0000   1.0000   1.0000   1.0000   1.0000   1.0000   1.0000
 Cp, KJ/(KG)(K)   14.4644  14.4687  14.4726  14.4762  14.4795  14.4825  14.4852  14.4877
 GAMMAs            1.3989   1.3987   1.3986   1.3984   1.3983   1.3982   1.3981   1.3980
 SON VEL,M/SEC     1480.7   1490.3   1499.9   1509.4   1518.9   1528.3   1537.6   1546.9

 TRANSPORT PROPERTIES (GASES ONLY)
   CONDUCTIVITY IN UNITS OF MILLIWATTS/(CM)(K)

 VISC,MILLIPOISE  0.00053  0.00307  0.01567  0.05277  0.09129  0.10598  0.11000  0.11155

  WITH EQUILIBRIUM REACTIONS

 Cp, KJ/(KG)(K)   14.4644  14.4687  14.4726  14.4762  14.4795  14.4825  14.4852  14.4877
 CONDUCTIVITY      0.0033   0.0194   0.1081   0.4985   1.3842   2.0585   2.2800   2.3435
 PRANDTL NUMBER    2.3306   2.2915   2.0980   1.5325   0.9550   0.7456   0.6989   0.6896

  WITH FROZEN REACTIONS

 Cp, KJ/(KG)(K)   14.4644  14.4687  14.4726  14.4762  14.4795  14.4825  14.4852  14.4877
 CONDUCTIVITY      0.0033   0.0194   0.1081   0.4985   1.3842   2.0585   2.2800   2.3435
 PRANDTL NUMBER    2.3306   2.2915   2.0980   1.5325   0.9550   0.7456   0.6989   0.6896

 MASS FRACTIONS

 *H2              1.00000  1.00000  1.00000  1.00000  1.00000  1.00000  1.00000  1.00000

  * THERMODYNAMIC PROPERTIES FITTED TO 20000.K

 NOTE. WEIGHT FRACTION OF FUEL IN TOTAL FUELS AND OF OXIDANT IN TOTAL OXIDANTS









               THERMODYNAMIC EQUILIBRIUM PROPERTIES AT ASSIGNED

                           TEMPERATURE AND PRESSURE

 CASE =                

             REACTANT                    WT FRACTION      ENERGY      TEMP
                                          (SEE NOTE)     KJ/KG-MOL      K  
 FUEL        H2                           1.0000000         0.000      0.000
 OXIDANT     H2                           1.0000000         0.000      0.000

 O/F=    1.00000  %FUEL= 50.000000  R,EQ.RATIO= 0.000000  PHI,EQ.RATIO=-1.000000

 THERMODYNAMIC PROPERTIES

 P, BAR            310.00   310.00   310.00   310.00   310.00   310.00   350.00   350.00
 T, K              420.00   425.00   430.00   435.00   440.00   445.00   375.00   380.00
 RHO, KG/CU M    1.7895 1 1.7685 1 1.7479 1 1.7278 1 1.7082 1 1.6890 1 2.2629 1 2.2331 1
 H, KJ/KG         1757.93  1830.39  1902.85  1975.33  2047.81  2120.30  1106.47  1178.78
 U, KJ/KG          25.647   77.480   129.32   181.17   233.03   284.90  -440.21  -388.52
 G, KJ/KG        -17607.0 -17838.0 -18069.8 -18302.5 -18536.0 -18770.3 -15380.7 -15601.0
 S, KJ/(KG)(K)    46.1070  46.2785  46.4480  46.6156  46.7813  46.9451  43.9659  44.1574

 M, (1/n)           2.016    2.016    2.016    2.016    2.016    2.016    2.016    2.016
 (dLV/dLP)t      -1.00000 -1.00000 -1.00000 -1.00000 -1.00000 -1.00000 -1.00000 -1.00000
 (dLV/dLT)p        1.0000   1.0000   1.0000   1.0000   1.0000   1.0000   1.0000   1.0000
 Cp, KJ/(KG)(K)   14.4900  14.4920  14.4939  14.4957  14.4973  14.4988  14.4597  14.4644
 GAMMAs            1.3979   1.3978   1.3978   1.3977   1.3976   1.3976   1.3991   1.3989
 SON VEL,M/SEC     1556.1   1565.3   1574.5   1583.6   1592.6   1601.6   1471.0   1480.7

 TRANSPORT PROPERTIES (GASES ONLY)
   CONDUCTIVITY IN UNITS OF MILLIWATTS/(CM)(K)

 VISC,MILLIPOISE  0.11258  0.11352  0.11443  0.11533  0.11623  0.11713  0.00009  0.00053

  WITH EQUILIBRIUM REACTIONS

 Cp, KJ/(KG)(K)   14.4900  14.4920  14.4939  14.4957  14.4973  14.4988  14.4597  14.4644
 CONDUCTIVITY      2.3718   2.3928   2.4123   2.4313   2.4503   2.4692   0.0005   0.0033
 PRANDTL NUMBER    0.6878   0.6875   0.6875   0.6876   0.6877   0.6878   2.3369   2.3306

  WITH FROZEN REACTIONS

 Cp, KJ/(KG)(K)   14.4900  14.4920  14.4939  14.4957  14.4973  14.4988  14.4597  14.4644
 CONDUCTIVITY      2.3718   2.3928   2.4123   2.4313   2.4503   2.4692   0.0005   0.0033
 PRANDTL NUMBER    0.6878   0.6875   0.6875   0.6876   0.6877   0.6878   2.3369   2.3306

 MASS FRACTIONS

 *H2              1.00000  1.00000  1.00000  1.00000  1.00000  1.00000  1.00000  1.00000

  * THERMODYNAMIC PROPERTIES FITTED TO 20000.K

 NOTE. WEIGHT FRACTION OF FUEL IN TOTAL FUELS AND OF OXIDANT IN TOTAL OXIDANTS









               THERMODYNAMIC EQUILIBRIUM PROPERTIES AT ASSIGNED

                           TEMPERATURE AND PRESSURE

 CASE =                

             REACTANT                    WT FRACTION      ENERGY      TEMP
                                          (SEE NOTE)     KJ/KG-MOL      K  
 FUEL        H2                           1.0000000         0.000      0.000
 OXIDANT     H2                           1.0000000         0.000      0.000

 O/F=    1.00000  %FUEL= 50.000000  R,EQ.RATIO= 0.000000  PHI,EQ.RATIO=-1.000000

 THERMODYNAMIC PROPERTIES

 P, BAR            350.00   350.00   350.00   350.00   350.00   350.00   350.00   350.00
 T, K              385.00   390.00   395.00   400.00   405.00   410.00   415.00   420.00
 RHO, KG/CU M    2.2041 1 2.1759 1 2.1483 1 2.1215 1 2.0953 1 2.0697 1 2.0448 1 2.0205 1
 H, KJ/KG         1251.12  1323.47  1395.84  1468.23  1540.64  1613.06  1685.49  1757.93
 U, KJ/KG         -336.81  -285.08  -233.33  -181.56  -129.78  -77.985  -26.175   25.647
 G, KJ/KG        -15822.3 -16044.5 -16267.6 -16491.7 -16716.6 -16942.5 -17169.2 -17396.8
 S, KJ/(KG)(K)    44.3465  44.5333  44.7176  44.8998  45.0796  45.2574  45.4330  45.6065

 M, (1/n)           2.016    2.016    2.016    2.016    2.016    2.016    2.016    2.016
 (dLV/dLP)t      -1.00000 -1.00000 -1.00000 -1.00000 -1.00000 -1.00000 -1.00000 -1.00000
 (dLV/dLT)p        1.0000   1.0000   1.0000   1.0000   1.0000   1.0000   1.0000   1.0000
 Cp, KJ/(KG)(K)   14.4687  14.4726  14.4762  14.4795  14.4825  14.4852  14.4877  14.4900
 GAMMAs            1.3987   1.3986   1.3984   1.3983   1.3982   1.3981   1.3980   1.3979
 SON VEL,M/SEC     1490.3   1499.9   1509.4   1518.9   1528.3   1537.6   1546.9   1556.1

 TRANSPORT PROPERTIES (GASES ONLY)
   CONDUCTIVITY IN UNITS OF MILLIWATTS/(CM)(K)

 VISC,MILLIPOISE  0.00307  0.01567  0.05277  0.09129  0.10598  0.11000  0.11155  0.11258

  WITH EQUILIBRIUM REACTIONS

 Cp, KJ/(KG)(K)   14.4687  14.4726  14.4762  14.4795  14.4825  14.4852  14.4877  14.4900
 CONDUCTIVITY      0.0194   0.1081   0.4985   1.3842   2.0585   2.2800   2.3435   2.3718
 PRANDTL NUMBER    2.2915   2.0980   1.5325   0.9550   0.7456   0.6989   0.6896   0.6878

  WITH FROZEN REACTIONS

 Cp, KJ/(KG)(K)   14.4687  14.4726  14.4762  14.4795  14.4825  14.4852  14.4877  14.4900
 CONDUCTIVITY      0.0194   0.1081   0.4985   1.3842   2.0585   2.2800   2.3435   2.3718
 PRANDTL NUMBER    2.2915   2.0980   1.5325   0.9550   0.7456   0.6989   0.6896   0.6878

 MASS FRACTIONS

 *H2              1.00000  1.00000  1.00000  1.00000  1.00000  1.00000  1.00000  1.00000

  * THERMODYNAMIC PROPERTIES FITTED TO 20000.K

 NOTE. WEIGHT FRACTION OF FUEL IN TOTAL FUELS AND OF OXIDANT IN TOTAL OXIDANTS









               THERMODYNAMIC EQUILIBRIUM PROPERTIES AT ASSIGNED

                           TEMPERATURE AND PRESSURE

 CASE =                

             REACTANT                    WT FRACTION      ENERGY      TEMP
                                          (SEE NOTE)     KJ/KG-MOL      K  
 FUEL        H2                           1.0000000         0.000      0.000
 OXIDANT     H2                           1.0000000         0.000      0.000

 O/F=    1.00000  %FUEL= 50.000000  R,EQ.RATIO= 0.000000  PHI,EQ.RATIO=-1.000000

 THERMODYNAMIC PROPERTIES

 P, BAR            350.00   350.00   350.00   350.00   350.00   390.00   390.00   390.00
 T, K              425.00   430.00   435.00   440.00   445.00   375.00   380.00   385.00
 RHO, KG/CU M    1.9967 1 1.9735 1 1.9508 1 1.9286 1 1.9069 1 2.5215 1 2.4883 1 2.4560 1
 H, KJ/KG         1830.39  1902.85  1975.33  2047.81  2120.30  1106.47  1178.78  1251.12
 U, KJ/KG          77.480   129.32   181.17   233.03   284.90  -440.21  -388.52  -336.81
 G, KJ/KG        -17625.2 -17854.6 -18084.7 -18315.7 -18547.5 -15213.4 -15431.4 -15650.5
 S, KJ/(KG)(K)    45.7780  45.9475  46.1151  46.2807  46.4446  43.5196  43.7111  43.9002

 M, (1/n)           2.016    2.016    2.016    2.016    2.016    2.016    2.016    2.016
 (dLV/dLP)t      -1.00000 -1.00000 -1.00000 -1.00000 -1.00000 -1.00000 -1.00000 -1.00000
 (dLV/dLT)p        1.0000   1.0000   1.0000   1.0000   1.0000   1.0000   1.0000   1.0000
 Cp, KJ/(KG)(K)   14.4920  14.4939  14.4957  14.4973  14.4988  14.4597  14.4644  14.4687
 GAMMAs            1.3978   1.3978   1.3977   1.3976   1.3976   1.3991   1.3989   1.3987
 SON VEL,M/SEC     1565.3   1574.5   1583.6   1592.6   1601.6   1471.0   1480.7   1490.3

 TRANSPORT PROPERTIES (GASES ONLY)
   CONDUCTIVITY IN UNITS OF MILLIWATTS/(CM)(K)

 VISC,MILLIPOISE  0.11352  0.11443  0.11533  0.11623  0.11713  0.00009  0.00053  0.00307

  WITH EQUILIBRIUM REACTIONS

 Cp, KJ/(KG)(K)   14.4920  14.4939  14.4957  14.4973  14.4988  14.4597  14.4644  14.4687
 CONDUCTIVITY      2.3928   2.4123   2.4313   2.4503   2.4692   0.0005   0.0033   0.0194
 PRANDTL NUMBER    0.6875   0.6875   0.6876   0.6877   0.6878   2.3369   2.3306   2.2915

  WITH FROZEN REACTIONS

 Cp, KJ/(KG)(K)   14.4920  14.4939  14.4957  14.4973  14.4988  14.4597  14.4644  14.4687
 CONDUCTIVITY      2.3928   2.4123   2.4313   2.4503   2.4692   0.0005   0.0033   0.0194
 PRANDTL NUMBER    0.6875   0.6875   0.6876   0.6877   0.6878   2.3369   2.3306   2.2915

 MASS FRACTIONS

 *H2              1.00000  1.00000  1.00000  1.00000  1.00000  1.00000  1.00000  1.00000

  * THERMODYNAMIC PROPERTIES FITTED TO 20000.K

 NOTE. WEIGHT FRACTION OF FUEL IN TOTAL FUELS AND OF OXIDANT IN TOTAL OXIDANTS









               THERMODYNAMIC EQUILIBRIUM PROPERTIES AT ASSIGNED

                           TEMPERATURE AND PRESSURE

 CASE =                

             REACTANT                    WT FRACTION      ENERGY      TEMP
                                          (SEE NOTE)     KJ/KG-MOL      K  
 FUEL        H2                           1.0000000         0.000      0.000
 OXIDANT     H2                           1.0000000         0.000      0.000

 O/F=    1.00000  %FUEL= 50.000000  R,EQ.RATIO= 0.000000  PHI,EQ.RATIO=-1.000000

 THERMODYNAMIC PROPERTIES

 P, BAR            390.00   390.00   390.00   390.00   390.00   390.00   390.00   390.00
 T, K              390.00   395.00   400.00   405.00   410.00   415.00   420.00   425.00
 RHO, KG/CU M    2.4245 1 2.3939 1 2.3639 1 2.3347 1 2.3063 1 2.2785 1 2.2514 1 2.2249 1
 H, KJ/KG         1323.47  1395.84  1468.23  1540.64  1613.06  1685.49  1757.93  1830.39
 U, KJ/KG         -285.08  -233.33  -181.56  -129.78  -77.985  -26.175   25.647   77.480
 G, KJ/KG        -15870.4 -16091.3 -16313.1 -16535.9 -16759.5 -16984.0 -17209.3 -17435.6
 S, KJ/(KG)(K)    44.0869  44.2713  44.4534  44.6333  44.8110  44.9866  45.1602  45.3316

 M, (1/n)           2.016    2.016    2.016    2.016    2.016    2.016    2.016    2.016
 (dLV/dLP)t      -1.00000 -1.00000 -1.00000 -1.00000 -1.00000 -1.00000 -1.00000 -1.00000
 (dLV/dLT)p        1.0000   1.0000   1.0000   1.0000   1.0000   1.0000   1.0000   1.0000
 Cp, KJ/(KG)(K)   14.4726  14.4762  14.4795  14.4825  14.4852  14.4877  14.4900  14.4920
 GAMMAs            1.3986   1.3984   1.3983   1.3982   1.3981   1.3980   1.3979   1.3978
 SON VEL,M/SEC     1499.9   1509.4   1518.9   1528.3   1537.6   1546.9   1556.1   1565.3

 TRANSPORT PROPERTIES (GASES ONLY)
   CONDUCTIVITY IN UNITS OF MILLIWATTS/(CM)(K)

 VISC,MILLIPOISE  0.01567  0.05277  0.09129  0.10598  0.11000  0.11155  0.11258  0.11352

  WITH EQUILIBRIUM REACTIONS

 Cp, KJ/(KG)(K)   14.4726  14.4762  14.4795  14.4825  14.4852  14.4877  14.4900  14.4920
 CONDUCTIVITY      0.1081   0.4985   1.3842   2.0585   2.2800   2.3435   2.3718   2.3928
 PRANDTL NUMBER    2.0980   1.5325   0.9550   0.7456   0.6989   0.6896   0.6878   0.6875

  WITH FROZEN REACTIONS

 Cp, KJ/(KG)(K)   14.4726  14.4762  14.4795  14.4825  14.4852  14.4877  14.4900  14.4920
 CONDUCTIVITY      0.1081   0.4985   1.3842   2.0585   2.2800   2.3435   2.3718   2.3928
 PRANDTL NUMBER    2.0980   1.5325   0.9550   0.7456   0.6989   0.6896   0.6878   0.6875

 MASS FRACTIONS

 *H2              1.00000  1.00000  1.00000  1.00000  1.00000  1.00000  1.00000  1.00000

  * THERMODYNAMIC PROPERTIES FITTED TO 20000.K

 NOTE. WEIGHT FRACTION OF FUEL IN TOTAL FUELS AND OF OXIDANT IN TOTAL OXIDANTS









               THERMODYNAMIC EQUILIBRIUM PROPERTIES AT ASSIGNED

                           TEMPERATURE AND PRESSURE

 CASE =                

             REACTANT                    WT FRACTION      ENERGY      TEMP
                                          (SEE NOTE)     KJ/KG-MOL      K  
 FUEL        H2                           1.0000000         0.000      0.000
 OXIDANT     H2                           1.0000000         0.000      0.000

 O/F=    1.00000  %FUEL= 50.000000  R,EQ.RATIO= 0.000000  PHI,EQ.RATIO=-1.000000

 THERMODYNAMIC PROPERTIES

 P, BAR            390.00   390.00   390.00   390.00   440.00   440.00   440.00   440.00
 T, K              430.00   435.00   440.00   445.00   375.00   380.00   385.00   390.00
 RHO, KG/CU M    2.1990 1 2.1737 1 2.1490 1 2.1249 1 2.8448 1 2.8074 1 2.7709 1 2.7354 1
 H, KJ/KG         1902.85  1975.33  2047.81  2120.30  1106.47  1178.78  1251.12  1323.47
 U, KJ/KG          129.32   181.17   233.03   284.90  -440.21  -388.52  -336.81  -285.08
 G, KJ/KG        -17662.6 -17890.6 -18119.3 -18348.9 -15026.8 -15242.4 -15458.9 -15676.4
 S, KJ/(KG)(K)    45.5012  45.6687  45.8344  45.9982  43.0221  43.2136  43.4027  43.5894

 M, (1/n)           2.016    2.016    2.016    2.016    2.016    2.016    2.016    2.016
 (dLV/dLP)t      -1.00000 -1.00000 -1.00000 -1.00000 -1.00000 -1.00000 -1.00000 -1.00000
 (dLV/dLT)p        1.0000   1.0000   1.0000   1.0000   1.0000   1.0000   1.0000   1.0000
 Cp, KJ/(KG)(K)   14.4939  14.4957  14.4973  14.4988  14.4597  14.4644  14.4687  14.4726
 GAMMAs            1.3978   1.3977   1.3976   1.3976   1.3991   1.3989   1.3987   1.3986
 SON VEL,M/SEC     1574.5   1583.6   1592.6   1601.6   1471.0   1480.7   1490.3   1499.9

 TRANSPORT PROPERTIES (GASES ONLY)
   CONDUCTIVITY IN UNITS OF MILLIWATTS/(CM)(K)

 VISC,MILLIPOISE  0.11443  0.11533  0.11623  0.11713  0.00009  0.00053  0.00307  0.01567

  WITH EQUILIBRIUM REACTIONS

 Cp, KJ/(KG)(K)   14.4939  14.4957  14.4973  14.4988  14.4597  14.4644  14.4687  14.4726
 CONDUCTIVITY      2.4123   2.4313   2.4503   2.4692   0.0005   0.0033   0.0194   0.1081
 PRANDTL NUMBER    0.6875   0.6876   0.6877   0.6878   2.3369   2.3306   2.2915   2.0980

  WITH FROZEN REACTIONS

 Cp, KJ/(KG)(K)   14.4939  14.4957  14.4973  14.4988  14.4597  14.4644  14.4687  14.4726
 CONDUCTIVITY      2.4123   2.4313   2.4503   2.4692   0.0005   0.0033   0.0194   0.1081
 PRANDTL NUMBER    0.6875   0.6876   0.6877   0.6878   2.3369   2.3306   2.2915   2.0980

 MASS FRACTIONS

 *H2              1.00000  1.00000  1.00000  1.00000  1.00000  1.00000  1.00000  1.00000

  * THERMODYNAMIC PROPERTIES FITTED TO 20000.K

 NOTE. WEIGHT FRACTION OF FUEL IN TOTAL FUELS AND OF OXIDANT IN TOTAL OXIDANTS









               THERMODYNAMIC EQUILIBRIUM PROPERTIES AT ASSIGNED

                           TEMPERATURE AND PRESSURE

 CASE =                

             REACTANT                    WT FRACTION      ENERGY      TEMP
                                          (SEE NOTE)     KJ/KG-MOL      K  
 FUEL        H2                           1.0000000         0.000      0.000
 OXIDANT     H2                           1.0000000         0.000      0.000

 O/F=    1.00000  %FUEL= 50.000000  R,EQ.RATIO= 0.000000  PHI,EQ.RATIO=-1.000000

 THERMODYNAMIC PROPERTIES

 P, BAR            440.00   440.00   440.00   440.00   440.00   440.00   440.00   440.00
 T, K              395.00   400.00   405.00   410.00   415.00   420.00   425.00   430.00
 RHO, KG/CU M    2.7008 1 2.6670 1 2.6341 1 2.6019 1 2.5706 1 2.5400 1 2.5101 1 2.4809 1
 H, KJ/KG         1395.84  1468.23  1540.64  1613.06  1685.49  1757.93  1830.39  1902.85
 U, KJ/KG         -233.33  -181.56  -129.78  -77.985  -26.175   25.647   77.480   129.32
 G, KJ/KG        -15894.8 -16114.1 -16334.4 -16555.5 -16777.5 -17000.4 -17224.1 -17448.7
 S, KJ/(KG)(K)    43.7738  43.9559  44.1358  44.3135  44.4891  44.6626  44.8341  45.0036

 M, (1/n)           2.016    2.016    2.016    2.016    2.016    2.016    2.016    2.016
 (dLV/dLP)t      -1.00000 -1.00000 -1.00000 -1.00000 -1.00000 -1.00000 -1.00000 -1.00000
 (dLV/dLT)p        1.0000   1.0000   1.0000   1.0000   1.0000   1.0000   1.0000   1.0000
 Cp, KJ/(KG)(K)   14.4762  14.4795  14.4825  14.4852  14.4877  14.4900  14.4920  14.4939
 GAMMAs            1.3984   1.3983   1.3982   1.3981   1.3980   1.3979   1.3978   1.3978
 SON VEL,M/SEC     1509.4   1518.9   1528.3   1537.6   1546.9   1556.1   1565.3   1574.5

 TRANSPORT PROPERTIES (GASES ONLY)
   CONDUCTIVITY IN UNITS OF MILLIWATTS/(CM)(K)

 VISC,MILLIPOISE  0.05277  0.09129  0.10598  0.11000  0.11155  0.11258  0.11352  0.11443

  WITH EQUILIBRIUM REACTIONS

 Cp, KJ/(KG)(K)   14.4762  14.4795  14.4825  14.4852  14.4877  14.4900  14.4920  14.4939
 CONDUCTIVITY      0.4985   1.3842   2.0585   2.2800   2.3435   2.3718   2.3928   2.4123
 PRANDTL NUMBER    1.5325   0.9550   0.7456   0.6989   0.6896   0.6878   0.6875   0.6875

  WITH FROZEN REACTIONS

 Cp, KJ/(KG)(K)   14.4762  14.4795  14.4825  14.4852  14.4877  14.4900  14.4920  14.4939
 CONDUCTIVITY      0.4985   1.3842   2.0585   2.2800   2.3435   2.3718   2.3928   2.4123
 PRANDTL NUMBER    1.5325   0.9550   0.7456   0.6989   0.6896   0.6878   0.6875   0.6875

 MASS FRACTIONS

 *H2              1.00000  1.00000  1.00000  1.00000  1.00000  1.00000  1.00000  1.00000

  * THERMODYNAMIC PROPERTIES FITTED TO 20000.K

 NOTE. WEIGHT FRACTION OF FUEL IN TOTAL FUELS AND OF OXIDANT IN TOTAL OXIDANTS









               THERMODYNAMIC EQUILIBRIUM PROPERTIES AT ASSIGNED

                           TEMPERATURE AND PRESSURE

 CASE =                

             REACTANT                    WT FRACTION      ENERGY      TEMP
                                          (SEE NOTE)     KJ/KG-MOL      K  
 FUEL        H2                           1.0000000         0.000      0.000
 OXIDANT     H2                           1.0000000         0.000      0.000

 O/F=    1.00000  %FUEL= 50.000000  R,EQ.RATIO= 0.000000  PHI,EQ.RATIO=-1.000000

 THERMODYNAMIC PROPERTIES

 P, BAR            440.00   440.00   440.00   490.00   490.00   490.00   490.00   490.00
 T, K              435.00   440.00   445.00   375.00   380.00   385.00   390.00   395.00
 RHO, KG/CU M    2.4524 1 2.4245 1 2.3973 1 3.1681 1 3.1264 1 3.0858 1 3.0462 1 3.0077 1
 H, KJ/KG         1975.33  2047.81  2120.30  1106.47  1178.78  1251.12  1323.47  1395.84
 U, KJ/KG          181.17   233.03   284.90  -440.21  -388.52  -336.81  -285.08  -233.33
 G, KJ/KG        -17674.1 -17900.4 -18127.5 -14860.3 -15073.7 -15288.0 -15503.3 -15719.5
 S, KJ/(KG)(K)    45.1712  45.3369  45.5007  42.5781  42.7697  42.9588  43.1455  43.3299

 M, (1/n)           2.016    2.016    2.016    2.016    2.016    2.016    2.016    2.016
 (dLV/dLP)t      -1.00000 -1.00000 -1.00000 -1.00000 -1.00000 -1.00000 -1.00000 -1.00000
 (dLV/dLT)p        1.0000   1.0000   1.0000   1.0000   1.0000   1.0000   1.0000   1.0000
 Cp, KJ/(KG)(K)   14.4957  14.4973  14.4988  14.4597  14.4644  14.4687  14.4726  14.4762
 GAMMAs            1.3977   1.3976   1.3976   1.3991   1.3989   1.3987   1.3986   1.3984
 SON VEL,M/SEC     1583.6   1592.6   1601.6   1471.0   1480.7   1490.3   1499.9   1509.4

 TRANSPORT PROPERTIES (GASES ONLY)
   CONDUCTIVITY IN UNITS OF MILLIWATTS/(CM)(K)

 VISC,MILLIPOISE  0.11533  0.11623  0.11713  0.00009  0.00053  0.00307  0.01567  0.05277

  WITH EQUILIBRIUM REACTIONS

 Cp, KJ/(KG)(K)   14.4957  14.4973  14.4988  14.4597  14.4644  14.4687  14.4726  14.4762
 CONDUCTIVITY      2.4313   2.4503   2.4692   0.0005   0.0033   0.0194   0.1081   0.4985
 PRANDTL NUMBER    0.6876   0.6877   0.6878   2.3369   2.3306   2.2915   2.0980   1.5325

  WITH FROZEN REACTIONS

 Cp, KJ/(KG)(K)   14.4957  14.4973  14.4988  14.4597  14.4644  14.4687  14.4726  14.4762
 CONDUCTIVITY      2.4313   2.4503   2.4692   0.0005   0.0033   0.0194   0.1081   0.4985
 PRANDTL NUMBER    0.6876   0.6877   0.6878   2.3369   2.3306   2.2915   2.0980   1.5325

 MASS FRACTIONS

 *H2              1.00000  1.00000  1.00000  1.00000  1.00000  1.00000  1.00000  1.00000

  * THERMODYNAMIC PROPERTIES FITTED TO 20000.K

 NOTE. WEIGHT FRACTION OF FUEL IN TOTAL FUELS AND OF OXIDANT IN TOTAL OXIDANTS









               THERMODYNAMIC EQUILIBRIUM PROPERTIES AT ASSIGNED

                           TEMPERATURE AND PRESSURE

 CASE =                

             REACTANT                    WT FRACTION      ENERGY      TEMP
                                          (SEE NOTE)     KJ/KG-MOL      K  
 FUEL        H2                           1.0000000         0.000      0.000
 OXIDANT     H2                           1.0000000         0.000      0.000

 O/F=    1.00000  %FUEL= 50.000000  R,EQ.RATIO= 0.000000  PHI,EQ.RATIO=-1.000000

 THERMODYNAMIC PROPERTIES

 P, BAR            490.00   490.00   490.00   490.00   490.00   490.00   490.00   490.00
 T, K              400.00   405.00   410.00   415.00   420.00   425.00   430.00   435.00
 RHO, KG/CU M    2.9701 1 2.9334 1 2.8976 1 2.8627 1 2.8286 1 2.7954 1 2.7629 1 2.7311 1
 H, KJ/KG         1468.23  1540.64  1613.06  1685.49  1757.93  1830.39  1902.85  1975.33
 U, KJ/KG         -181.56  -129.78  -77.985  -26.175   25.647   77.480   129.32   181.17
 G, KJ/KG        -15936.6 -16154.6 -16373.5 -16593.3 -16813.9 -17035.4 -17257.8 -17481.0
 S, KJ/(KG)(K)    43.5120  43.6919  43.8696  44.0452  44.2187  44.3902  44.5597  44.7273

 M, (1/n)           2.016    2.016    2.016    2.016    2.016    2.016    2.016    2.016
 (dLV/dLP)t      -1.00000 -1.00000 -1.00000 -1.00000 -1.00000 -1.00000 -1.00000 -1.00000
 (dLV/dLT)p        1.0000   1.0000   1.0000   1.0000   1.0000   1.0000   1.0000   1.0000
 Cp, KJ/(KG)(K)   14.4795  14.4825  14.4852  14.4877  14.4900  14.4920  14.4939  14.4957
 GAMMAs            1.3983   1.3982   1.3981   1.3980   1.3979   1.3978   1.3978   1.3977
 SON VEL,M/SEC     1518.9   1528.3   1537.6   1546.9   1556.1   1565.3   1574.5   1583.6

 TRANSPORT PROPERTIES (GASES ONLY)
   CONDUCTIVITY IN UNITS OF MILLIWATTS/(CM)(K)

 VISC,MILLIPOISE  0.09129  0.10598  0.11000  0.11155  0.11258  0.11352  0.11443  0.11533

  WITH EQUILIBRIUM REACTIONS

 Cp, KJ/(KG)(K)   14.4795  14.4825  14.4852  14.4877  14.4900  14.4920  14.4939  14.4957
 CONDUCTIVITY      1.3842   2.0585   2.2800   2.3435   2.3718   2.3928   2.4123   2.4313
 PRANDTL NUMBER    0.9550   0.7456   0.6989   0.6896   0.6878   0.6875   0.6875   0.6876

  WITH FROZEN REACTIONS

 Cp, KJ/(KG)(K)   14.4795  14.4825  14.4852  14.4877  14.4900  14.4920  14.4939  14.4957
 CONDUCTIVITY      1.3842   2.0585   2.2800   2.3435   2.3718   2.3928   2.4123   2.4313
 PRANDTL NUMBER    0.9550   0.7456   0.6989   0.6896   0.6878   0.6875   0.6875   0.6876

 MASS FRACTIONS

 *H2              1.00000  1.00000  1.00000  1.00000  1.00000  1.00000  1.00000  1.00000

  * THERMODYNAMIC PROPERTIES FITTED TO 20000.K

 NOTE. WEIGHT FRACTION OF FUEL IN TOTAL FUELS AND OF OXIDANT IN TOTAL OXIDANTS









               THERMODYNAMIC EQUILIBRIUM PROPERTIES AT ASSIGNED

                           TEMPERATURE AND PRESSURE

 CASE =                

             REACTANT                    WT FRACTION      ENERGY      TEMP
                                          (SEE NOTE)     KJ/KG-MOL      K  
 FUEL        H2                           1.0000000         0.000      0.000
 OXIDANT     H2                           1.0000000         0.000      0.000

 O/F=    1.00000  %FUEL= 50.000000  R,EQ.RATIO= 0.000000  PHI,EQ.RATIO=-1.000000

 THERMODYNAMIC PROPERTIES

 P, BAR            490.00   490.00   540.00   540.00   540.00   540.00   540.00   540.00
 T, K              440.00   445.00   375.00   380.00   385.00   390.00   395.00   400.00
 RHO, KG/CU M    2.7001 1 2.6697 1 3.4913 1 3.4454 1 3.4007 1 3.3571 1 3.3146 1 3.2731 1
 H, KJ/KG         2047.81  2120.30  1106.47  1178.78  1251.12  1323.47  1395.84  1468.23
 U, KJ/KG          233.03   284.90  -440.21  -388.52  -336.81  -285.08  -233.33  -181.56
 G, KJ/KG        -17705.1 -17930.0 -14710.0 -14921.4 -15133.7 -15347.0 -15561.2 -15776.3
 S, KJ/(KG)(K)    44.8929  45.0568  42.1774  42.3689  42.5580  42.7447  42.9291  43.1112

 M, (1/n)           2.016    2.016    2.016    2.016    2.016    2.016    2.016    2.016
 (dLV/dLP)t      -1.00000 -1.00000 -1.00000 -1.00000 -1.00000 -1.00000 -1.00000 -1.00000
 (dLV/dLT)p        1.0000   1.0000   1.0000   1.0000   1.0000   1.0000   1.0000   1.0000
 Cp, KJ/(KG)(K)   14.4973  14.4988  14.4597  14.4644  14.4687  14.4726  14.4762  14.4795
 GAMMAs            1.3976   1.3976   1.3991   1.3989   1.3987   1.3986   1.3984   1.3983
 SON VEL,M/SEC     1592.6   1601.6   1471.0   1480.7   1490.3   1499.9   1509.4   1518.9

 TRANSPORT PROPERTIES (GASES ONLY)
   CONDUCTIVITY IN UNITS OF MILLIWATTS/(CM)(K)

 VISC,MILLIPOISE  0.11623  0.11713  0.00009  0.00053  0.00307  0.01567  0.05277  0.09129

  WITH EQUILIBRIUM REACTIONS

 Cp, KJ/(KG)(K)   14.4973  14.4988  14.4597  14.4644  14.4687  14.4726  14.4762  14.4795
 CONDUCTIVITY      2.4503   2.4692   0.0005   0.0033   0.0194   0.1081   0.4985   1.3842
 PRANDTL NUMBER    0.6877   0.6878   2.3369   2.3306   2.2915   2.0980   1.5325   0.9550

  WITH FROZEN REACTIONS

 Cp, KJ/(KG)(K)   14.4973  14.4988  14.4597  14.4644  14.4687  14.4726  14.4762  14.4795
 CONDUCTIVITY      2.4503   2.4692   0.0005   0.0033   0.0194   0.1081   0.4985   1.3842
 PRANDTL NUMBER    0.6877   0.6878   2.3369   2.3306   2.2915   2.0980   1.5325   0.9550

 MASS FRACTIONS

 *H2              1.00000  1.00000  1.00000  1.00000  1.00000  1.00000  1.00000  1.00000

  * THERMODYNAMIC PROPERTIES FITTED TO 20000.K

 NOTE. WEIGHT FRACTION OF FUEL IN TOTAL FUELS AND OF OXIDANT IN TOTAL OXIDANTS









               THERMODYNAMIC EQUILIBRIUM PROPERTIES AT ASSIGNED

                           TEMPERATURE AND PRESSURE

 CASE =                

             REACTANT                    WT FRACTION      ENERGY      TEMP
                                          (SEE NOTE)     KJ/KG-MOL      K  
 FUEL        H2                           1.0000000         0.000      0.000
 OXIDANT     H2                           1.0000000         0.000      0.000

 O/F=    1.00000  %FUEL= 50.000000  R,EQ.RATIO= 0.000000  PHI,EQ.RATIO=-1.000000

 THERMODYNAMIC PROPERTIES

 P, BAR            540.00   540.00   540.00   540.00   540.00   540.00   540.00   540.00
 T, K              405.00   410.00   415.00   420.00   425.00   430.00   435.00   440.00
 RHO, KG/CU M    3.2327 1 3.1933 1 3.1548 1 3.1173 1 3.0806 1 3.0448 1 3.0098 1 2.9756 1
 H, KJ/KG         1540.64  1613.06  1685.49  1757.93  1830.39  1902.85  1975.33  2047.81
 U, KJ/KG         -129.78  -77.985  -26.175   25.647   77.480   129.32   181.17   233.03
 G, KJ/KG        -15992.3 -16209.2 -16426.9 -16645.6 -16865.1 -17085.5 -17306.7 -17528.8
 S, KJ/(KG)(K)    43.2911  43.4688  43.6444  43.8179  43.9894  44.1589  44.3265  44.4922

 M, (1/n)           2.016    2.016    2.016    2.016    2.016    2.016    2.016    2.016
 (dLV/dLP)t      -1.00000 -1.00000 -1.00000 -1.00000 -1.00000 -1.00000 -1.00000 -1.00000
 (dLV/dLT)p        1.0000   1.0000   1.0000   1.0000   1.0000   1.0000   1.0000   1.0000
 Cp, KJ/(KG)(K)   14.4825  14.4852  14.4877  14.4900  14.4920  14.4939  14.4957  14.4973
 GAMMAs            1.3982   1.3981   1.3980   1.3979   1.3978   1.3978   1.3977   1.3976
 SON VEL,M/SEC     1528.3   1537.6   1546.9   1556.1   1565.3   1574.5   1583.6   1592.6

 TRANSPORT PROPERTIES (GASES ONLY)
   CONDUCTIVITY IN UNITS OF MILLIWATTS/(CM)(K)

 VISC,MILLIPOISE  0.10598  0.11000  0.11155  0.11258  0.11352  0.11443  0.11533  0.11623

  WITH EQUILIBRIUM REACTIONS

 Cp, KJ/(KG)(K)   14.4825  14.4852  14.4877  14.4900  14.4920  14.4939  14.4957  14.4973
 CONDUCTIVITY      2.0585   2.2800   2.3435   2.3718   2.3928   2.4123   2.4313   2.4503
 PRANDTL NUMBER    0.7456   0.6989   0.6896   0.6878   0.6875   0.6875   0.6876   0.6877

  WITH FROZEN REACTIONS

 Cp, KJ/(KG)(K)   14.4825  14.4852  14.4877  14.4900  14.4920  14.4939  14.4957  14.4973
 CONDUCTIVITY      2.0585   2.2800   2.3435   2.3718   2.3928   2.4123   2.4313   2.4503
 PRANDTL NUMBER    0.7456   0.6989   0.6896   0.6878   0.6875   0.6875   0.6876   0.6877

 MASS FRACTIONS

 *H2              1.00000  1.00000  1.00000  1.00000  1.00000  1.00000  1.00000  1.00000

  * THERMODYNAMIC PROPERTIES FITTED TO 20000.K

 NOTE. WEIGHT FRACTION OF FUEL IN TOTAL FUELS AND OF OXIDANT IN TOTAL OXIDANTS









               THERMODYNAMIC EQUILIBRIUM PROPERTIES AT ASSIGNED

                           TEMPERATURE AND PRESSURE

 CASE =                

             REACTANT                    WT FRACTION      ENERGY      TEMP
                                          (SEE NOTE)     KJ/KG-MOL      K  
 FUEL        H2                           1.0000000         0.000      0.000
 OXIDANT     H2                           1.0000000         0.000      0.000

 O/F=    1.00000  %FUEL= 50.000000  R,EQ.RATIO= 0.000000  PHI,EQ.RATIO=-1.000000

 THERMODYNAMIC PROPERTIES

 P, BAR            540.00   600.00   600.00   600.00   600.00   600.00   600.00   600.00
 T, K              445.00   375.00   380.00   385.00   390.00   395.00   400.00   405.00
 RHO, KG/CU M    2.9421 1 3.8793 1 3.8282 1 3.7785 1 3.7301 1 3.6828 1 3.6368 1 3.5919 1
 H, KJ/KG         2120.30  1106.47  1178.78  1251.12  1323.47  1395.84  1468.23  1540.64
 U, KJ/KG          284.90  -440.21  -388.52  -336.81  -285.08  -233.33  -181.56  -129.78
 G, KJ/KG        -17751.6 -14547.1 -14756.3 -14966.4 -15177.5 -15389.5 -15602.4 -15816.3
 S, KJ/(KG)(K)    44.6560  41.7428  41.9343  42.1234  42.3102  42.4945  42.6767  42.8565

 M, (1/n)           2.016    2.016    2.016    2.016    2.016    2.016    2.016    2.016
 (dLV/dLP)t      -1.00000 -1.00000 -1.00000 -1.00000 -1.00000 -1.00000 -1.00000 -1.00000
 (dLV/dLT)p        1.0000   1.0000   1.0000   1.0000   1.0000   1.0000   1.0000   1.0000
 Cp, KJ/(KG)(K)   14.4988  14.4597  14.4644  14.4687  14.4726  14.4762  14.4795  14.4825
 GAMMAs            1.3976   1.3991   1.3989   1.3987   1.3986   1.3984   1.3983   1.3982
 SON VEL,M/SEC     1601.6   1471.0   1480.7   1490.3   1499.9   1509.4   1518.9   1528.3

 TRANSPORT PROPERTIES (GASES ONLY)
   CONDUCTIVITY IN UNITS OF MILLIWATTS/(CM)(K)

 VISC,MILLIPOISE  0.11713  0.00009  0.00053  0.00307  0.01567  0.05277  0.09129  0.10598

  WITH EQUILIBRIUM REACTIONS

 Cp, KJ/(KG)(K)   14.4988  14.4597  14.4644  14.4687  14.4726  14.4762  14.4795  14.4825
 CONDUCTIVITY      2.4692   0.0005   0.0033   0.0194   0.1081   0.4985   1.3842   2.0585
 PRANDTL NUMBER    0.6878   2.3369   2.3306   2.2915   2.0980   1.5325   0.9550   0.7456

  WITH FROZEN REACTIONS

 Cp, KJ/(KG)(K)   14.4988  14.4597  14.4644  14.4687  14.4726  14.4762  14.4795  14.4825
 CONDUCTIVITY      2.4692   0.0005   0.0033   0.0194   0.1081   0.4985   1.3842   2.0585
 PRANDTL NUMBER    0.6878   2.3369   2.3306   2.2915   2.0980   1.5325   0.9550   0.7456

 MASS FRACTIONS

 *H2              1.00000  1.00000  1.00000  1.00000  1.00000  1.00000  1.00000  1.00000

  * THERMODYNAMIC PROPERTIES FITTED TO 20000.K

 NOTE. WEIGHT FRACTION OF FUEL IN TOTAL FUELS AND OF OXIDANT IN TOTAL OXIDANTS









               THERMODYNAMIC EQUILIBRIUM PROPERTIES AT ASSIGNED

                           TEMPERATURE AND PRESSURE

 CASE =                

             REACTANT                    WT FRACTION      ENERGY      TEMP
                                          (SEE NOTE)     KJ/KG-MOL      K  
 FUEL        H2                           1.0000000         0.000      0.000
 OXIDANT     H2                           1.0000000         0.000      0.000

 O/F=    1.00000  %FUEL= 50.000000  R,EQ.RATIO= 0.000000  PHI,EQ.RATIO=-1.000000

 THERMODYNAMIC PROPERTIES

 P, BAR            600.00   600.00   600.00   600.00   600.00   600.00   600.00   600.00
 T, K              410.00   415.00   420.00   425.00   430.00   435.00   440.00   445.00
 RHO, KG/CU M    3.5481 1 3.5054 1 3.4636 1 3.4229 1 3.3831 1 3.3442 1 3.3062 1 3.2690 1
 H, KJ/KG         1613.06  1685.49  1757.93  1830.39  1902.85  1975.33  2047.81  2120.30
 U, KJ/KG         -77.985  -26.175   25.647   77.480   129.32   181.17   233.03   284.90
 G, KJ/KG        -16031.0 -16246.6 -16463.1 -16680.4 -16898.6 -17117.7 -17337.6 -17558.2
 S, KJ/(KG)(K)    43.0343  43.2099  43.3834  43.5549  43.7244  43.8920  44.0576  44.2215

 M, (1/n)           2.016    2.016    2.016    2.016    2.016    2.016    2.016    2.016
 (dLV/dLP)t      -1.00000 -1.00000 -1.00000 -1.00000 -1.00000 -1.00000 -1.00000 -1.00000
 (dLV/dLT)p        1.0000   1.0000   1.0000   1.0000   1.0000   1.0000   1.0000   1.0000
 Cp, KJ/(KG)(K)   14.4852  14.4877  14.4900  14.4920  14.4939  14.4957  14.4973  14.4988
 GAMMAs            1.3981   1.3980   1.3979   1.3978   1.3978   1.3977   1.3976   1.3976
 SON VEL,M/SEC     1537.6   1546.9   1556.1   1565.3   1574.5   1583.6   1592.6   1601.6

 TRANSPORT PROPERTIES (GASES ONLY)
   CONDUCTIVITY IN UNITS OF MILLIWATTS/(CM)(K)

 VISC,MILLIPOISE  0.11000  0.11155  0.11258  0.11352  0.11443  0.11533  0.11623  0.11713

  WITH EQUILIBRIUM REACTIONS

 Cp, KJ/(KG)(K)   14.4852  14.4877  14.4900  14.4920  14.4939  14.4957  14.4973  14.4988
 CONDUCTIVITY      2.2800   2.3435   2.3718   2.3928   2.4123   2.4313   2.4503   2.4692
 PRANDTL NUMBER    0.6989   0.6896   0.6878   0.6875   0.6875   0.6876   0.6877   0.6878

  WITH FROZEN REACTIONS

 Cp, KJ/(KG)(K)   14.4852  14.4877  14.4900  14.4920  14.4939  14.4957  14.4973  14.4988
 CONDUCTIVITY      2.2800   2.3435   2.3718   2.3928   2.4123   2.4313   2.4503   2.4692
 PRANDTL NUMBER    0.6989   0.6896   0.6878   0.6875   0.6875   0.6876   0.6877   0.6878

 MASS FRACTIONS

 *H2              1.00000  1.00000  1.00000  1.00000  1.00000  1.00000  1.00000  1.00000

  * THERMODYNAMIC PROPERTIES FITTED TO 20000.K

 NOTE. WEIGHT FRACTION OF FUEL IN TOTAL FUELS AND OF OXIDANT IN TOTAL OXIDANTS









               THERMODYNAMIC EQUILIBRIUM PROPERTIES AT ASSIGNED

                           TEMPERATURE AND PRESSURE

 CASE =                

             REACTANT                    WT FRACTION      ENERGY      TEMP
                                          (SEE NOTE)     KJ/KG-MOL      K  
 FUEL        H2                           1.0000000         0.000      0.000
 OXIDANT     H2                           1.0000000         0.000      0.000

 O/F=    1.00000  %FUEL= 50.000000  R,EQ.RATIO= 0.000000  PHI,EQ.RATIO=-1.000000

 THERMODYNAMIC PROPERTIES

 P, BAR            670.00   670.00   670.00   670.00   670.00   670.00   670.00   670.00
 T, K              375.00   380.00   385.00   390.00   395.00   400.00   405.00   410.00
 RHO, KG/CU M    4.3318 1 4.2748 1 4.2193 1 4.1652 1 4.1125 1 4.0611 1 4.0110 1 3.9621 1
 H, KJ/KG         1106.47  1178.78  1251.12  1323.47  1395.84  1468.23  1540.64  1613.06
 U, KJ/KG         -440.21  -388.52  -336.81  -285.08  -233.33  -181.56  -129.78  -77.985
 G, KJ/KG        -14376.4 -14583.3 -14791.2 -15000.0 -15209.7 -15420.4 -15631.9 -15844.4
 S, KJ/(KG)(K)    41.2877  41.4792  41.6683  41.8550  42.0394  42.2215  42.4014  42.5791

 M, (1/n)           2.016    2.016    2.016    2.016    2.016    2.016    2.016    2.016
 (dLV/dLP)t      -1.00000 -1.00000 -1.00000 -1.00000 -1.00000 -1.00000 -1.00000 -1.00000
 (dLV/dLT)p        1.0000   1.0000   1.0000   1.0000   1.0000   1.0000   1.0000   1.0000
 Cp, KJ/(KG)(K)   14.4597  14.4644  14.4687  14.4726  14.4762  14.4795  14.4825  14.4852
 GAMMAs            1.3991   1.3989   1.3987   1.3986   1.3984   1.3983   1.3982   1.3981
 SON VEL,M/SEC     1471.0   1480.7   1490.3   1499.9   1509.4   1518.9   1528.3   1537.6

 TRANSPORT PROPERTIES (GASES ONLY)
   CONDUCTIVITY IN UNITS OF MILLIWATTS/(CM)(K)

 VISC,MILLIPOISE  0.00009  0.00053  0.00307  0.01567  0.05277  0.09129  0.10598  0.11000

  WITH EQUILIBRIUM REACTIONS

 Cp, KJ/(KG)(K)   14.4597  14.4644  14.4687  14.4726  14.4762  14.4795  14.4825  14.4852
 CONDUCTIVITY      0.0005   0.0033   0.0194   0.1081   0.4985   1.3842   2.0585   2.2800
 PRANDTL NUMBER    2.3369   2.3306   2.2915   2.0980   1.5325   0.9550   0.7456   0.6989

  WITH FROZEN REACTIONS

 Cp, KJ/(KG)(K)   14.4597  14.4644  14.4687  14.4726  14.4762  14.4795  14.4825  14.4852
 CONDUCTIVITY      0.0005   0.0033   0.0194   0.1081   0.4985   1.3842   2.0585   2.2800
 PRANDTL NUMBER    2.3369   2.3306   2.2915   2.0980   1.5325   0.9550   0.7456   0.6989

 MASS FRACTIONS

 *H2              1.00000  1.00000  1.00000  1.00000  1.00000  1.00000  1.00000  1.00000

  * THERMODYNAMIC PROPERTIES FITTED TO 20000.K

 NOTE. WEIGHT FRACTION OF FUEL IN TOTAL FUELS AND OF OXIDANT IN TOTAL OXIDANTS









               THERMODYNAMIC EQUILIBRIUM PROPERTIES AT ASSIGNED

                           TEMPERATURE AND PRESSURE

 CASE =                

             REACTANT                    WT FRACTION      ENERGY      TEMP
                                          (SEE NOTE)     KJ/KG-MOL      K  
 FUEL        H2                           1.0000000         0.000      0.000
 OXIDANT     H2                           1.0000000         0.000      0.000

 O/F=    1.00000  %FUEL= 50.000000  R,EQ.RATIO= 0.000000  PHI,EQ.RATIO=-1.000000

 THERMODYNAMIC PROPERTIES

 P, BAR            670.00   670.00   670.00   670.00   670.00   670.00   670.00   740.00
 T, K              415.00   420.00   425.00   430.00   435.00   440.00   445.00   375.00
 RHO, KG/CU M    3.9143 1 3.8677 1 3.8222 1 3.7778 1 3.7344 1 3.6919 1 3.6504 1 4.7844 1
 H, KJ/KG         1685.49  1757.93  1830.39  1902.85  1975.33  2047.81  2120.30  1106.47
 U, KJ/KG         -26.175   25.647   77.480   129.32   181.17   233.03   284.90  -440.21
 G, KJ/KG        -16057.7 -16271.9 -16487.0 -16702.9 -16919.7 -17137.3 -17355.7 -14222.7
 S, KJ/(KG)(K)    42.7547  42.9283  43.0997  43.2693  43.4368  43.6025  43.7663  40.8778

 M, (1/n)           2.016    2.016    2.016    2.016    2.016    2.016    2.016    2.016
 (dLV/dLP)t      -1.00000 -1.00000 -1.00000 -1.00000 -1.00000 -1.00000 -1.00000 -1.00000
 (dLV/dLT)p        1.0000   1.0000   1.0000   1.0000   1.0000   1.0000   1.0000   1.0000
 Cp, KJ/(KG)(K)   14.4877  14.4900  14.4920  14.4939  14.4957  14.4973  14.4988  14.4597
 GAMMAs            1.3980   1.3979   1.3978   1.3978   1.3977   1.3976   1.3976   1.3991
 SON VEL,M/SEC     1546.9   1556.1   1565.3   1574.5   1583.6   1592.6   1601.6   1471.0

 TRANSPORT PROPERTIES (GASES ONLY)
   CONDUCTIVITY IN UNITS OF MILLIWATTS/(CM)(K)

 VISC,MILLIPOISE  0.11155  0.11258  0.11352  0.11443  0.11533  0.11623  0.11713  0.00009

  WITH EQUILIBRIUM REACTIONS

 Cp, KJ/(KG)(K)   14.4877  14.4900  14.4920  14.4939  14.4957  14.4973  14.4988  14.4597
 CONDUCTIVITY      2.3435   2.3718   2.3928   2.4123   2.4313   2.4503   2.4692   0.0005
 PRANDTL NUMBER    0.6896   0.6878   0.6875   0.6875   0.6876   0.6877   0.6878   2.3369

  WITH FROZEN REACTIONS

 Cp, KJ/(KG)(K)   14.4877  14.4900  14.4920  14.4939  14.4957  14.4973  14.4988  14.4597
 CONDUCTIVITY      2.3435   2.3718   2.3928   2.4123   2.4313   2.4503   2.4692   0.0005
 PRANDTL NUMBER    0.6896   0.6878   0.6875   0.6875   0.6876   0.6877   0.6878   2.3369

 MASS FRACTIONS

 *H2              1.00000  1.00000  1.00000  1.00000  1.00000  1.00000  1.00000  1.00000

  * THERMODYNAMIC PROPERTIES FITTED TO 20000.K

 NOTE. WEIGHT FRACTION OF FUEL IN TOTAL FUELS AND OF OXIDANT IN TOTAL OXIDANTS









               THERMODYNAMIC EQUILIBRIUM PROPERTIES AT ASSIGNED

                           TEMPERATURE AND PRESSURE

 CASE =                

             REACTANT                    WT FRACTION      ENERGY      TEMP
                                          (SEE NOTE)     KJ/KG-MOL      K  
 FUEL        H2                           1.0000000         0.000      0.000
 OXIDANT     H2                           1.0000000         0.000      0.000

 O/F=    1.00000  %FUEL= 50.000000  R,EQ.RATIO= 0.000000  PHI,EQ.RATIO=-1.000000

 THERMODYNAMIC PROPERTIES

 P, BAR            740.00   740.00   740.00   740.00   740.00   740.00   740.00   740.00
 T, K              380.00   385.00   390.00   395.00   400.00   405.00   410.00   415.00
 RHO, KG/CU M    4.7215 1 4.6602 1 4.6004 1 4.5422 1 4.4854 1 4.4300 1 4.3760 1 4.3233 1
 H, KJ/KG         1178.78  1251.12  1323.47  1395.84  1468.23  1540.64  1613.06  1685.49
 U, KJ/KG         -388.52  -336.81  -285.08  -233.33  -181.56  -129.78  -77.985  -26.175
 G, KJ/KG        -14427.6 -14633.4 -14840.1 -15047.8 -15256.4 -15465.9 -15676.3 -15887.6
 S, KJ/(KG)(K)    41.0693  41.2584  41.4452  41.6296  41.8117  41.9916  42.1693  42.3449

 M, (1/n)           2.016    2.016    2.016    2.016    2.016    2.016    2.016    2.016
 (dLV/dLP)t      -1.00000 -1.00000 -1.00000 -1.00000 -1.00000 -1.00000 -1.00000 -1.00000
 (dLV/dLT)p        1.0000   1.0000   1.0000   1.0000   1.0000   1.0000   1.0000   1.0000
 Cp, KJ/(KG)(K)   14.4644  14.4687  14.4726  14.4762  14.4795  14.4825  14.4852  14.4877
 GAMMAs            1.3989   1.3987   1.3986   1.3984   1.3983   1.3982   1.3981   1.3980
 SON VEL,M/SEC     1480.7   1490.3   1499.9   1509.4   1518.9   1528.3   1537.6   1546.9

 TRANSPORT PROPERTIES (GASES ONLY)
   CONDUCTIVITY IN UNITS OF MILLIWATTS/(CM)(K)

 VISC,MILLIPOISE  0.00053  0.00307  0.01567  0.05277  0.09129  0.10598  0.11000  0.11155

  WITH EQUILIBRIUM REACTIONS

 Cp, KJ/(KG)(K)   14.4644  14.4687  14.4726  14.4762  14.4795  14.4825  14.4852  14.4877
 CONDUCTIVITY      0.0033   0.0194   0.1081   0.4985   1.3842   2.0585   2.2800   2.3435
 PRANDTL NUMBER    2.3306   2.2915   2.0980   1.5325   0.9550   0.7456   0.6989   0.6896

  WITH FROZEN REACTIONS

 Cp, KJ/(KG)(K)   14.4644  14.4687  14.4726  14.4762  14.4795  14.4825  14.4852  14.4877
 CONDUCTIVITY      0.0033   0.0194   0.1081   0.4985   1.3842   2.0585   2.2800   2.3435
 PRANDTL NUMBER    2.3306   2.2915   2.0980   1.5325   0.9550   0.7456   0.6989   0.6896

 MASS FRACTIONS

 *H2              1.00000  1.00000  1.00000  1.00000  1.00000  1.00000  1.00000  1.00000

  * THERMODYNAMIC PROPERTIES FITTED TO 20000.K

 NOTE. WEIGHT FRACTION OF FUEL IN TOTAL FUELS AND OF OXIDANT IN TOTAL OXIDANTS









               THERMODYNAMIC EQUILIBRIUM PROPERTIES AT ASSIGNED

                           TEMPERATURE AND PRESSURE

 CASE =                

             REACTANT                    WT FRACTION      ENERGY      TEMP
                                          (SEE NOTE)     KJ/KG-MOL      K  
 FUEL        H2                           1.0000000         0.000      0.000
 OXIDANT     H2                           1.0000000         0.000      0.000

 O/F=    1.00000  %FUEL= 50.000000  R,EQ.RATIO= 0.000000  PHI,EQ.RATIO=-1.000000

 THERMODYNAMIC PROPERTIES

 P, BAR            740.00   740.00   740.00   740.00   740.00   740.00   825.00   825.00
 T, K              420.00   425.00   430.00   435.00   440.00   445.00   375.00   380.00
 RHO, KG/CU M    4.2718 1 4.2216 1 4.1725 1 4.1245 1 4.0776 1 4.0318 1 5.3340 1 5.2638 1
 H, KJ/KG         1757.93  1830.39  1902.85  1975.33  2047.81  2120.30  1106.47  1178.78
 U, KJ/KG          25.647   77.480   129.32   181.17   233.03   284.90  -440.21  -388.52
 G, KJ/KG        -16099.8 -16312.8 -16526.7 -16741.4 -16957.0 -17173.3 -14054.5 -14257.1
 S, KJ/(KG)(K)    42.5184  42.6899  42.8594  43.0270  43.1926  43.3565  40.4294  40.6209

 M, (1/n)           2.016    2.016    2.016    2.016    2.016    2.016    2.016    2.016
 (dLV/dLP)t      -1.00000 -1.00000 -1.00000 -1.00000 -1.00000 -1.00000 -1.00000 -1.00000
 (dLV/dLT)p        1.0000   1.0000   1.0000   1.0000   1.0000   1.0000   1.0000   1.0000
 Cp, KJ/(KG)(K)   14.4900  14.4920  14.4939  14.4957  14.4973  14.4988  14.4597  14.4644
 GAMMAs            1.3979   1.3978   1.3978   1.3977   1.3976   1.3976   1.3991   1.3989
 SON VEL,M/SEC     1556.1   1565.3   1574.5   1583.6   1592.6   1601.6   1471.0   1480.7

 TRANSPORT PROPERTIES (GASES ONLY)
   CONDUCTIVITY IN UNITS OF MILLIWATTS/(CM)(K)

 VISC,MILLIPOISE  0.11258  0.11352  0.11443  0.11533  0.11623  0.11713  0.00009  0.00053

  WITH EQUILIBRIUM REACTIONS

 Cp, KJ/(KG)(K)   14.4900  14.4920  14.4939  14.4957  14.4973  14.4988  14.4597  14.4644
 CONDUCTIVITY      2.3718   2.3928   2.4123   2.4313   2.4503   2.4692   0.0005   0.0033
 PRANDTL NUMBER    0.6878   0.6875   0.6875   0.6876   0.6877   0.6878   2.3369   2.3306

  WITH FROZEN REACTIONS

 Cp, KJ/(KG)(K)   14.4900  14.4920  14.4939  14.4957  14.4973  14.4988  14.4597  14.4644
 CONDUCTIVITY      2.3718   2.3928   2.4123   2.4313   2.4503   2.4692   0.0005   0.0033
 PRANDTL NUMBER    0.6878   0.6875   0.6875   0.6876   0.6877   0.6878   2.3369   2.3306

 MASS FRACTIONS

 *H2              1.00000  1.00000  1.00000  1.00000  1.00000  1.00000  1.00000  1.00000

  * THERMODYNAMIC PROPERTIES FITTED TO 20000.K

 NOTE. WEIGHT FRACTION OF FUEL IN TOTAL FUELS AND OF OXIDANT IN TOTAL OXIDANTS









               THERMODYNAMIC EQUILIBRIUM PROPERTIES AT ASSIGNED

                           TEMPERATURE AND PRESSURE

 CASE =                

             REACTANT                    WT FRACTION      ENERGY      TEMP
                                          (SEE NOTE)     KJ/KG-MOL      K  
 FUEL        H2                           1.0000000         0.000      0.000
 OXIDANT     H2                           1.0000000         0.000      0.000

 O/F=    1.00000  %FUEL= 50.000000  R,EQ.RATIO= 0.000000  PHI,EQ.RATIO=-1.000000

 THERMODYNAMIC PROPERTIES

 P, BAR            825.00   825.00   825.00   825.00   825.00   825.00   825.00   825.00
 T, K              385.00   390.00   395.00   400.00   405.00   410.00   415.00   420.00
 RHO, KG/CU M    5.1954 1 5.1288 1 5.0639 1 5.0006 1 4.9389 1 4.8787 1 4.8199 1 4.7625 1
 H, KJ/KG         1251.12  1323.47  1395.84  1468.23  1540.64  1613.06  1685.49  1757.93
 U, KJ/KG         -336.81  -285.08  -233.33  -181.56  -129.78  -77.985  -26.175   25.647
 G, KJ/KG        -14460.7 -14665.2 -14870.7 -15077.0 -15284.3 -15492.5 -15701.5 -15911.4
 S, KJ/(KG)(K)    40.8100  40.9967  41.1811  41.3632  41.5431  41.7208  41.8964  42.0699

 M, (1/n)           2.016    2.016    2.016    2.016    2.016    2.016    2.016    2.016
 (dLV/dLP)t      -1.00000 -1.00000 -1.00000 -1.00000 -1.00000 -1.00000 -1.00000 -1.00000
 (dLV/dLT)p        1.0000   1.0000   1.0000   1.0000   1.0000   1.0000   1.0000   1.0000
 Cp, KJ/(KG)(K)   14.4687  14.4726  14.4762  14.4795  14.4825  14.4852  14.4877  14.4900
 GAMMAs            1.3987   1.3986   1.3984   1.3983   1.3982   1.3981   1.3980   1.3979
 SON VEL,M/SEC     1490.3   1499.9   1509.4   1518.9   1528.3   1537.6   1546.9   1556.1

 TRANSPORT PROPERTIES (GASES ONLY)
   CONDUCTIVITY IN UNITS OF MILLIWATTS/(CM)(K)

 VISC,MILLIPOISE  0.00307  0.01567  0.05277  0.09129  0.10598  0.11000  0.11155  0.11258

  WITH EQUILIBRIUM REACTIONS

 Cp, KJ/(KG)(K)   14.4687  14.4726  14.4762  14.4795  14.4825  14.4852  14.4877  14.4900
 CONDUCTIVITY      0.0194   0.1081   0.4985   1.3842   2.0585   2.2800   2.3435   2.3718
 PRANDTL NUMBER    2.2915   2.0980   1.5325   0.9550   0.7456   0.6989   0.6896   0.6878

  WITH FROZEN REACTIONS

 Cp, KJ/(KG)(K)   14.4687  14.4726  14.4762  14.4795  14.4825  14.4852  14.4877  14.4900
 CONDUCTIVITY      0.0194   0.1081   0.4985   1.3842   2.0585   2.2800   2.3435   2.3718
 PRANDTL NUMBER    2.2915   2.0980   1.5325   0.9550   0.7456   0.6989   0.6896   0.6878

 MASS FRACTIONS

 *H2              1.00000  1.00000  1.00000  1.00000  1.00000  1.00000  1.00000  1.00000

  * THERMODYNAMIC PROPERTIES FITTED TO 20000.K

 NOTE. WEIGHT FRACTION OF FUEL IN TOTAL FUELS AND OF OXIDANT IN TOTAL OXIDANTS









               THERMODYNAMIC EQUILIBRIUM PROPERTIES AT ASSIGNED

                           TEMPERATURE AND PRESSURE

 CASE =                

             REACTANT                    WT FRACTION      ENERGY      TEMP
                                          (SEE NOTE)     KJ/KG-MOL      K  
 FUEL        H2                           1.0000000         0.000      0.000
 OXIDANT     H2                           1.0000000         0.000      0.000

 O/F=    1.00000  %FUEL= 50.000000  R,EQ.RATIO= 0.000000  PHI,EQ.RATIO=-1.000000

 THERMODYNAMIC PROPERTIES

 P, BAR            825.00   825.00   825.00   825.00   825.00   910.00   910.00   910.00
 T, K              425.00   430.00   435.00   440.00   445.00   375.00   380.00   385.00
 RHO, KG/CU M    4.7065 1 4.6517 1 4.5983 1 4.5460 1 4.4949 1 5.8835 1 5.8061 1 5.7307 1
 H, KJ/KG         1830.39  1902.85  1975.33  2047.81  2120.30  1106.47  1178.78  1251.12
 U, KJ/KG          77.480   129.32   181.17   233.03   284.90  -440.21  -388.52  -336.81
 G, KJ/KG        -16122.2 -16333.8 -16546.3 -16759.6 -16973.8 -13902.9 -14103.5 -14305.0
 S, KJ/(KG)(K)    42.2414  42.4109  42.5785  42.7442  42.9080  40.0249  40.2164  40.4055

 M, (1/n)           2.016    2.016    2.016    2.016    2.016    2.016    2.016    2.016
 (dLV/dLP)t      -1.00000 -1.00000 -1.00000 -1.00000 -1.00000 -1.00000 -1.00000 -1.00000
 (dLV/dLT)p        1.0000   1.0000   1.0000   1.0000   1.0000   1.0000   1.0000   1.0000
 Cp, KJ/(KG)(K)   14.4920  14.4939  14.4957  14.4973  14.4988  14.4597  14.4644  14.4687
 GAMMAs            1.3978   1.3978   1.3977   1.3976   1.3976   1.3991   1.3989   1.3987
 SON VEL,M/SEC     1565.3   1574.5   1583.6   1592.6   1601.6   1471.0   1480.7   1490.3

 TRANSPORT PROPERTIES (GASES ONLY)
   CONDUCTIVITY IN UNITS OF MILLIWATTS/(CM)(K)

 VISC,MILLIPOISE  0.11352  0.11443  0.11533  0.11623  0.11713  0.00009  0.00053  0.00307

  WITH EQUILIBRIUM REACTIONS

 Cp, KJ/(KG)(K)   14.4920  14.4939  14.4957  14.4973  14.4988  14.4597  14.4644  14.4687
 CONDUCTIVITY      2.3928   2.4123   2.4313   2.4503   2.4692   0.0005   0.0033   0.0194
 PRANDTL NUMBER    0.6875   0.6875   0.6876   0.6877   0.6878   2.3369   2.3306   2.2915

  WITH FROZEN REACTIONS

 Cp, KJ/(KG)(K)   14.4920  14.4939  14.4957  14.4973  14.4988  14.4597  14.4644  14.4687
 CONDUCTIVITY      2.3928   2.4123   2.4313   2.4503   2.4692   0.0005   0.0033   0.0194
 PRANDTL NUMBER    0.6875   0.6875   0.6876   0.6877   0.6878   2.3369   2.3306   2.2915

 MASS FRACTIONS

 *H2              1.00000  1.00000  1.00000  1.00000  1.00000  1.00000  1.00000  1.00000

  * THERMODYNAMIC PROPERTIES FITTED TO 20000.K

 NOTE. WEIGHT FRACTION OF FUEL IN TOTAL FUELS AND OF OXIDANT IN TOTAL OXIDANTS









               THERMODYNAMIC EQUILIBRIUM PROPERTIES AT ASSIGNED

                           TEMPERATURE AND PRESSURE

 CASE =                

             REACTANT                    WT FRACTION      ENERGY      TEMP
                                          (SEE NOTE)     KJ/KG-MOL      K  
 FUEL        H2                           1.0000000         0.000      0.000
 OXIDANT     H2                           1.0000000         0.000      0.000

 O/F=    1.00000  %FUEL= 50.000000  R,EQ.RATIO= 0.000000  PHI,EQ.RATIO=-1.000000

 THERMODYNAMIC PROPERTIES

 P, BAR            910.00   910.00   910.00   910.00   910.00   910.00   910.00   910.00
 T, K              390.00   395.00   400.00   405.00   410.00   415.00   420.00   425.00
 RHO, KG/CU M    5.6573 1 5.5857 1 5.5158 1 5.4477 1 5.3813 1 5.3165 1 5.2532 1 5.1914 1
 H, KJ/KG         1323.47  1395.84  1468.23  1540.64  1613.06  1685.49  1757.93  1830.39
 U, KJ/KG         -285.08  -233.33  -181.56  -129.78  -77.985  -26.175   25.647   77.480
 G, KJ/KG        -14507.5 -14710.9 -14915.3 -15120.5 -15326.6 -15533.7 -15741.6 -15950.3
 S, KJ/(KG)(K)    40.5922  40.7766  40.9587  41.1386  41.3163  41.4919  41.6655  41.8370

 M, (1/n)           2.016    2.016    2.016    2.016    2.016    2.016    2.016    2.016
 (dLV/dLP)t      -1.00000 -1.00000 -1.00000 -1.00000 -1.00000 -1.00000 -1.00000 -1.00000
 (dLV/dLT)p        1.0000   1.0000   1.0000   1.0000   1.0000   1.0000   1.0000   1.0000
 Cp, KJ/(KG)(K)   14.4726  14.4762  14.4795  14.4825  14.4852  14.4877  14.4900  14.4920
 GAMMAs            1.3986   1.3984   1.3983   1.3982   1.3981   1.3980   1.3979   1.3978
 SON VEL,M/SEC     1499.9   1509.4   1518.9   1528.3   1537.6   1546.9   1556.1   1565.3

 TRANSPORT PROPERTIES (GASES ONLY)
   CONDUCTIVITY IN UNITS OF MILLIWATTS/(CM)(K)

 VISC,MILLIPOISE  0.01567  0.05277  0.09129  0.10598  0.11000  0.11155  0.11258  0.11352

  WITH EQUILIBRIUM REACTIONS

 Cp, KJ/(KG)(K)   14.4726  14.4762  14.4795  14.4825  14.4852  14.4877  14.4900  14.4920
 CONDUCTIVITY      0.1081   0.4985   1.3842   2.0585   2.2800   2.3435   2.3718   2.3928
 PRANDTL NUMBER    2.0980   1.5325   0.9550   0.7456   0.6989   0.6896   0.6878   0.6875

  WITH FROZEN REACTIONS

 Cp, KJ/(KG)(K)   14.4726  14.4762  14.4795  14.4825  14.4852  14.4877  14.4900  14.4920
 CONDUCTIVITY      0.1081   0.4985   1.3842   2.0585   2.2800   2.3435   2.3718   2.3928
 PRANDTL NUMBER    2.0980   1.5325   0.9550   0.7456   0.6989   0.6896   0.6878   0.6875

 MASS FRACTIONS

 *H2              1.00000  1.00000  1.00000  1.00000  1.00000  1.00000  1.00000  1.00000

  * THERMODYNAMIC PROPERTIES FITTED TO 20000.K

 NOTE. WEIGHT FRACTION OF FUEL IN TOTAL FUELS AND OF OXIDANT IN TOTAL OXIDANTS









               THERMODYNAMIC EQUILIBRIUM PROPERTIES AT ASSIGNED

                           TEMPERATURE AND PRESSURE

 CASE =                

             REACTANT                    WT FRACTION      ENERGY      TEMP
                                          (SEE NOTE)     KJ/KG-MOL      K  
 FUEL        H2                           1.0000000         0.000      0.000
 OXIDANT     H2                           1.0000000         0.000      0.000

 O/F=    1.00000  %FUEL= 50.000000  R,EQ.RATIO= 0.000000  PHI,EQ.RATIO=-1.000000

 THERMODYNAMIC PROPERTIES

 P, BAR            910.00   910.00   910.00   910.00
 T, K              430.00   435.00   440.00   445.00
 RHO, KG/CU M    5.1310 1 5.0720 1 5.0144 1 4.9581 1
 H, KJ/KG         1902.85  1975.33  2047.81  2120.30
 U, KJ/KG          129.32   181.17   233.03   284.90
 G, KJ/KG        -16159.9 -16370.4 -16581.7 -16793.8
 S, KJ/(KG)(K)    42.0065  42.1740  42.3397  42.5035

 M, (1/n)           2.016    2.016    2.016    2.016
 (dLV/dLP)t      -1.00000 -1.00000 -1.00000 -1.00000
 (dLV/dLT)p        1.0000   1.0000   1.0000   1.0000
 Cp, KJ/(KG)(K)   14.4939  14.4957  14.4973  14.4988
 GAMMAs            1.3978   1.3977   1.3976   1.3976
 SON VEL,M/SEC     1574.5   1583.6   1592.6   1601.6

 TRANSPORT PROPERTIES (GASES ONLY)
   CONDUCTIVITY IN UNITS OF MILLIWATTS/(CM)(K)

 VISC,MILLIPOISE  0.11443  0.11533  0.11623  0.11713

  WITH EQUILIBRIUM REACTIONS

 Cp, KJ/(KG)(K)   14.4939  14.4957  14.4973  14.4988
 CONDUCTIVITY      2.4123   2.4313   2.4503   2.4692
 PRANDTL NUMBER    0.6875   0.6876   0.6877   0.6878

  WITH FROZEN REACTIONS

 Cp, KJ/(KG)(K)   14.4939  14.4957  14.4973  14.4988
 CONDUCTIVITY      2.4123   2.4313   2.4503   2.4692
 PRANDTL NUMBER    0.6875   0.6876   0.6877   0.6878

 MASS FRACTIONS

 *H2              1.00000  1.00000  1.00000  1.00000

  * THERMODYNAMIC PROPERTIES FITTED TO 20000.K

 NOTE. WEIGHT FRACTION OF FUEL IN TOTAL FUELS AND OF OXIDANT IN TOTAL OXIDANTS



  
