
 *******************************************************************************

         NASA-GLENN CHEMICAL EQUILIBRIUM PROGRAM CEA2, MAY 21, 2004
                   BY  BONNIE MCBRIDE AND SANFORD GORDON
      REFS: NASA RP-1311, PART I, 1994 AND NASA RP-1311, PART II, 1996

 *******************************************************************************



  prob tp ions
  p,bar= 0.001,0.0011,0.0012,0.00132,0.00148,0.00165,0.0018,0.002,0.00225,0.0025,
 0.0028,0.0031,0.0035,0.0039,0.0044
  t,k= 5300,5310,5320,5330,5340,5350,5360,5370,5380,5390,5400,5410,5420,5430,5440
  
  
  reac
  fuel H2                wt%=100.0000
  oxid H2                wt%=100.0000
  
  output short
  
  output massf
  
  output siunits
  
  output transport
  
 end





               THERMODYNAMIC EQUILIBRIUM PROPERTIES AT ASSIGNED

                           TEMPERATURE AND PRESSURE

 CASE =                

             REACTANT                    WT FRACTION      ENERGY      TEMP
                                          (SEE NOTE)     KJ/KG-MOL      K  
 FUEL        H2                           1.0000000         0.000      0.000
 OXIDANT     H2                           1.0000000         0.000      0.000

 O/F=    1.00000  %FUEL= 50.000000  R,EQ.RATIO= 0.000000  PHI,EQ.RATIO=-1.000000

 THERMODYNAMIC PROPERTIES

 P, BAR           0.00100  0.00100  0.00100  0.00100  0.00100  0.00100  0.00100  0.00100
 T, K             5300.00  5310.00  5320.00  5330.00  5340.00  5350.00  5360.00  5370.00
 RHO, KG/CU M    2.2867-6 2.2824-6 2.2780-6 2.2737-6 2.2695-6 2.2652-6 2.2610-6 2.2567-6
 H, KJ/KG        319825.3 320044.0 320263.1 320482.5 320702.2 320922.3 321142.8 321363.6
 U, KJ/KG        276093.8 276229.6 276365.7 276502.1 276638.9 276776.1 276913.6 277051.4
 G, KJ/KG       -900362.5-902665.0-904967.8-907271.1-909574.8-911878.9-914183.4-916488.3
 S, KJ/(KG)(K)   230.2241 230.2654 230.3066 230.3478 230.3890 230.4301 230.4713 230.5125

 M, (1/n)           1.008    1.008    1.008    1.008    1.008    1.008    1.008    1.008
 (dLV/dLP)t      -1.00015 -1.00016 -1.00016 -1.00017 -1.00017 -1.00018 -1.00018 -1.00019
 (dLV/dLT)p        1.0047   1.0048   1.0050   1.0051   1.0052   1.0054   1.0055   1.0057
 Cp, KJ/(KG)(K)   21.8545  21.8876  21.9214  21.9560  21.9914  22.0277  22.0648  22.1028
 GAMMAs            1.6154   1.6141   1.6129   1.6116   1.6103   1.6089   1.6076   1.6062
 SON VEL,M/SEC     8405.0   8409.7   8414.3   8418.9   8423.4   8427.8   8432.1   8436.4

 TRANSPORT PROPERTIES (GASES ONLY)
   CONDUCTIVITY IN UNITS OF MILLIWATTS/(CM)(K)

 VISC,MILLIPOISE  0.56755  0.56841  0.56926  0.57011  0.57097  0.57182  0.57267  0.57352

  WITH EQUILIBRIUM REACTIONS

 Cp, KJ/(KG)(K)   21.8545  21.8876  21.9214  21.9560  21.9914  22.0277  22.0648  22.1028
 CONDUCTIVITY     17.7985  17.8312  17.8641  17.8971  17.9302  17.9636  17.9970  18.0306
 PRANDTL NUMBER    0.6969   0.6977   0.6986   0.6994   0.7003   0.7012   0.7021   0.7030

  WITH FROZEN REACTIONS

 Cp, KJ/(KG)(K)   20.6284  20.6285  20.6287  20.6289  20.6291  20.6293  20.6295  20.6297
 CONDUCTIVITY     17.5946  17.6221  17.6497  17.6773  17.7048  17.7324  17.7600  17.7875
 PRANDTL NUMBER    0.6654   0.6654   0.6653   0.6653   0.6653   0.6652   0.6652   0.6652

 MASS FRACTIONS

 *H               0.99969  0.99968  0.99968  0.99967  0.99966  0.99965  0.99964  0.99963
 *H+              0.00028  0.00029  0.00030  0.00031  0.00032  0.00033  0.00034  0.00035
 *H2              0.00003  0.00003  0.00002  0.00002  0.00002  0.00002  0.00002  0.00002

  * THERMODYNAMIC PROPERTIES FITTED TO 20000.K

 NOTE. WEIGHT FRACTION OF FUEL IN TOTAL FUELS AND OF OXIDANT IN TOTAL OXIDANTS









               THERMODYNAMIC EQUILIBRIUM PROPERTIES AT ASSIGNED

                           TEMPERATURE AND PRESSURE

 CASE =                

             REACTANT                    WT FRACTION      ENERGY      TEMP
                                          (SEE NOTE)     KJ/KG-MOL      K  
 FUEL        H2                           1.0000000         0.000      0.000
 OXIDANT     H2                           1.0000000         0.000      0.000

 O/F=    1.00000  %FUEL= 50.000000  R,EQ.RATIO= 0.000000  PHI,EQ.RATIO=-1.000000

 THERMODYNAMIC PROPERTIES

 P, BAR           0.00100  0.00100  0.00100  0.00100  0.00100  0.00100  0.00100  0.00110
 T, K             5380.00  5390.00  5400.00  5410.00  5420.00  5430.00  5440.00  5300.00
 RHO, KG/CU M    2.2525-6 2.2483-6 2.2441-6 2.2399-6 2.2358-6 2.2316-6 2.2275-6 2.5154-6
 H, KJ/KG        321584.8 321806.4 322028.4 322250.9 322473.7 322697.0 322920.7 319806.2
 U, KJ/KG        277189.7 277328.3 277467.3 277606.7 277746.4 277886.7 278027.3 276075.2
 G, KJ/KG       -918793.6-921099.4-923405.5-925712.1-928019.1-930326.5-932634.3-896194.5
 S, KJ/(KG)(K)   230.5536 230.5948 230.6359 230.6771 230.7182 230.7594 230.8005 229.4341

 M, (1/n)           1.008    1.008    1.008    1.008    1.008    1.008    1.008    1.008
 (dLV/dLP)t      -1.00019 -1.00020 -1.00020 -1.00021 -1.00021 -1.00022 -1.00022 -1.00015
 (dLV/dLT)p        1.0058   1.0060   1.0062   1.0063   1.0065   1.0067   1.0068   1.0045
 Cp, KJ/(KG)(K)   22.1416  22.1813  22.2220  22.2635  22.3060  22.3495  22.3939  21.7989
 GAMMAs            1.6048   1.6033   1.6019   1.6004   1.5989   1.5974   1.5958   1.6175
 SON VEL,M/SEC     8440.6   8444.7   8448.7   8452.7   8456.6   8460.4   8464.1   8410.5

 TRANSPORT PROPERTIES (GASES ONLY)
   CONDUCTIVITY IN UNITS OF MILLIWATTS/(CM)(K)

 VISC,MILLIPOISE  0.57437  0.57521  0.57606  0.57691  0.57775  0.57859  0.57944  0.56762

  WITH EQUILIBRIUM REACTIONS

 Cp, KJ/(KG)(K)   22.1416  22.1813  22.2220  22.2635  22.3060  22.3495  22.3939  21.7989
 CONDUCTIVITY     18.0644  18.0984  18.1324  18.1667  18.2011  18.2357  18.2704  17.7914
 PRANDTL NUMBER    0.7040   0.7050   0.7060   0.7070   0.7081   0.7091   0.7102   0.6955

  WITH FROZEN REACTIONS

 Cp, KJ/(KG)(K)   20.6299  20.6302  20.6304  20.6306  20.6309  20.6311  20.6314  20.6281
 CONDUCTIVITY     17.8151  17.8427  17.8702  17.8978  17.9253  17.9529  17.9804  17.5952
 PRANDTL NUMBER    0.6651   0.6651   0.6650   0.6650   0.6650   0.6649   0.6649   0.6655

 MASS FRACTIONS

 *H               0.99962  0.99961  0.99960  0.99959  0.99958  0.99956  0.99955  0.99970
 *H+              0.00036  0.00037  0.00038  0.00039  0.00040  0.00042  0.00043  0.00027
 *H2              0.00002  0.00002  0.00002  0.00002  0.00002  0.00002  0.00002  0.00003

  * THERMODYNAMIC PROPERTIES FITTED TO 20000.K

 NOTE. WEIGHT FRACTION OF FUEL IN TOTAL FUELS AND OF OXIDANT IN TOTAL OXIDANTS









               THERMODYNAMIC EQUILIBRIUM PROPERTIES AT ASSIGNED

                           TEMPERATURE AND PRESSURE

 CASE =                

             REACTANT                    WT FRACTION      ENERGY      TEMP
                                          (SEE NOTE)     KJ/KG-MOL      K  
 FUEL        H2                           1.0000000         0.000      0.000
 OXIDANT     H2                           1.0000000         0.000      0.000

 O/F=    1.00000  %FUEL= 50.000000  R,EQ.RATIO= 0.000000  PHI,EQ.RATIO=-1.000000

 THERMODYNAMIC PROPERTIES

 P, BAR           0.00110  0.00110  0.00110  0.00110  0.00110  0.00110  0.00110  0.00110
 T, K             5310.00  5320.00  5330.00  5340.00  5350.00  5360.00  5370.00  5380.00
 RHO, KG/CU M    2.5106-6 2.5059-6 2.5012-6 2.4965-6 2.4918-6 2.4871-6 2.4824-6 2.4778-6
 H, KJ/KG        320024.3 320242.8 320461.6 320680.7 320900.2 321120.0 321340.1 321560.7
 U, KJ/KG        276210.5 276346.1 276481.9 276618.1 276754.7 276891.5 277028.8 277166.3
 G, KJ/KG       -898489.0-900784.0-903079.4-905375.2-907671.3-909967.9-912265.0-914562.4
 S, KJ/(KG)(K)   229.4752 229.5163 229.5574 229.5985 229.6395 229.6806 229.7216 229.7626

 M, (1/n)           1.008    1.008    1.008    1.008    1.008    1.008    1.008    1.008
 (dLV/dLP)t      -1.00015 -1.00016 -1.00016 -1.00017 -1.00017 -1.00017 -1.00018 -1.00018
 (dLV/dLT)p        1.0046   1.0047   1.0049   1.0050   1.0051   1.0053   1.0054   1.0056
 Cp, KJ/(KG)(K)   21.8304  21.8626  21.8956  21.9293  21.9638  21.9992  22.0353  22.0723
 GAMMAs            1.6163   1.6151   1.6139   1.6126   1.6113   1.6100   1.6087   1.6073
 SON VEL,M/SEC     8415.3   8420.1   8424.8   8429.5   8434.0   8438.5   8442.9   8447.3

 TRANSPORT PROPERTIES (GASES ONLY)
   CONDUCTIVITY IN UNITS OF MILLIWATTS/(CM)(K)

 VISC,MILLIPOISE  0.56848  0.56934  0.57019  0.57105  0.57190  0.57275  0.57361  0.57446

  WITH EQUILIBRIUM REACTIONS

 Cp, KJ/(KG)(K)   21.8304  21.8626  21.8956  21.9293  21.9638  21.9992  22.0353  22.0723
 CONDUCTIVITY     17.8239  17.8565  17.8893  17.9222  17.9552  17.9884  18.0217  18.0552
 PRANDTL NUMBER    0.6963   0.6971   0.6979   0.6987   0.6996   0.7005   0.7014   0.7023

  WITH FROZEN REACTIONS

 Cp, KJ/(KG)(K)   20.6283  20.6284  20.6286  20.6288  20.6290  20.6292  20.6294  20.6296
 CONDUCTIVITY     17.6228  17.6504  17.6780  17.7056  17.7332  17.7608  17.7884  17.8160
 PRANDTL NUMBER    0.6654   0.6654   0.6654   0.6653   0.6653   0.6653   0.6652   0.6652

 MASS FRACTIONS

 *H               0.99969  0.99969  0.99968  0.99967  0.99966  0.99965  0.99964  0.99963
 *H+              0.00028  0.00029  0.00029  0.00030  0.00031  0.00032  0.00033  0.00034
 *H2              0.00003  0.00003  0.00003  0.00003  0.00003  0.00003  0.00002  0.00002

  * THERMODYNAMIC PROPERTIES FITTED TO 20000.K

 NOTE. WEIGHT FRACTION OF FUEL IN TOTAL FUELS AND OF OXIDANT IN TOTAL OXIDANTS









               THERMODYNAMIC EQUILIBRIUM PROPERTIES AT ASSIGNED

                           TEMPERATURE AND PRESSURE

 CASE =                

             REACTANT                    WT FRACTION      ENERGY      TEMP
                                          (SEE NOTE)     KJ/KG-MOL      K  
 FUEL        H2                           1.0000000         0.000      0.000
 OXIDANT     H2                           1.0000000         0.000      0.000

 O/F=    1.00000  %FUEL= 50.000000  R,EQ.RATIO= 0.000000  PHI,EQ.RATIO=-1.000000

 THERMODYNAMIC PROPERTIES

 P, BAR           0.00110  0.00110  0.00110  0.00110  0.00110  0.00110  0.00120  0.00120
 T, K             5390.00  5400.00  5410.00  5420.00  5430.00  5440.00  5300.00  5310.00
 RHO, KG/CU M    2.4732-6 2.4686-6 2.4640-6 2.4594-6 2.4548-6 2.4503-6 2.7441-6 2.7389-6
 H, KJ/KG        321781.6 322002.9 322224.6 322446.7 322669.2 322892.1 319789.4 320007.0
 U, KJ/KG        277304.2 277442.5 277581.2 277720.3 277859.7 277999.6 276059.0 276193.8
 G, KJ/KG       -916860.2-919158.4-921457.1-923756.2-926055.6-928355.5-892389.4-894676.8
 S, KJ/(KG)(K)   229.8037 229.8447 229.8857 229.9267 229.9677 230.0087 228.7130 228.7540

 M, (1/n)           1.008    1.008    1.008    1.008    1.008    1.008    1.008    1.008
 (dLV/dLP)t      -1.00019 -1.00019 -1.00020 -1.00020 -1.00021 -1.00021 -1.00014 -1.00015
 (dLV/dLT)p        1.0057   1.0059   1.0060   1.0062   1.0064   1.0065   1.0043   1.0044
 Cp, KJ/(KG)(K)   22.1102  22.1489  22.1885  22.2290  22.2704  22.3127  21.7506  21.7806
 GAMMAs            1.6059   1.6045   1.6031   1.6017   1.6002   1.5987   1.6194   1.6183
 SON VEL,M/SEC     8451.5   8455.7   8459.8   8463.8   8467.8   8471.7   8415.3   8420.3

 TRANSPORT PROPERTIES (GASES ONLY)
   CONDUCTIVITY IN UNITS OF MILLIWATTS/(CM)(K)

 VISC,MILLIPOISE  0.57531  0.57616  0.57701  0.57786  0.57870  0.57955  0.56769  0.56855

  WITH EQUILIBRIUM REACTIONS

 Cp, KJ/(KG)(K)   22.1102  22.1489  22.1885  22.2290  22.2704  22.3127  21.7506  21.7806
 CONDUCTIVITY     18.0889  18.1227  18.1566  18.1908  18.2250  18.2595  17.7854  17.8177
 PRANDTL NUMBER    0.7032   0.7042   0.7051   0.7061   0.7072   0.7082   0.6943   0.6950

  WITH FROZEN REACTIONS

 Cp, KJ/(KG)(K)   20.6298  20.6300  20.6303  20.6305  20.6307  20.6310  20.6279  20.6280
 CONDUCTIVITY     17.8436  17.8712  17.8988  17.9264  17.9540  17.9816  17.5957  17.6233
 PRANDTL NUMBER    0.6651   0.6651   0.6651   0.6650   0.6650   0.6649   0.6655   0.6655

 MASS FRACTIONS

 *H               0.99962  0.99961  0.99960  0.99959  0.99958  0.99957  0.99971  0.99970
 *H+              0.00035  0.00036  0.00037  0.00039  0.00040  0.00041  0.00026  0.00027
 *H2              0.00002  0.00002  0.00002  0.00002  0.00002  0.00002  0.00003  0.00003

  * THERMODYNAMIC PROPERTIES FITTED TO 20000.K

 NOTE. WEIGHT FRACTION OF FUEL IN TOTAL FUELS AND OF OXIDANT IN TOTAL OXIDANTS









               THERMODYNAMIC EQUILIBRIUM PROPERTIES AT ASSIGNED

                           TEMPERATURE AND PRESSURE

 CASE =                

             REACTANT                    WT FRACTION      ENERGY      TEMP
                                          (SEE NOTE)     KJ/KG-MOL      K  
 FUEL        H2                           1.0000000         0.000      0.000
 OXIDANT     H2                           1.0000000         0.000      0.000

 O/F=    1.00000  %FUEL= 50.000000  R,EQ.RATIO= 0.000000  PHI,EQ.RATIO=-1.000000

 THERMODYNAMIC PROPERTIES

 P, BAR           0.00120  0.00120  0.00120  0.00120  0.00120  0.00120  0.00120  0.00120
 T, K             5320.00  5330.00  5340.00  5350.00  5360.00  5370.00  5380.00  5390.00
 RHO, KG/CU M    2.7337-6 2.7286-6 2.7234-6 2.7183-6 2.7132-6 2.7081-6 2.7031-6 2.6980-6
 H, KJ/KG        320225.0 320443.3 320661.9 320880.8 321100.0 321319.6 321539.6 321759.9
 U, KJ/KG        276328.9 276464.2 276599.9 276735.9 276872.3 277008.9 277145.9 277283.2
 G, KJ/KG       -896964.5-899252.7-901541.2-903830.2-906119.6-908409.4-910699.6-912990.2
 S, KJ/(KG)(K)   228.7950 228.8360 228.8770 228.9179 228.9589 228.9998 229.0407 229.0816

 M, (1/n)           1.008    1.008    1.008    1.008    1.008    1.008    1.008    1.008
 (dLV/dLP)t      -1.00015 -1.00016 -1.00016 -1.00016 -1.00017 -1.00017 -1.00018 -1.00018
 (dLV/dLT)p        1.0046   1.0047   1.0048   1.0049   1.0051   1.0052   1.0054   1.0055
 Cp, KJ/(KG)(K)   21.8114  21.8430  21.8752  21.9083  21.9421  21.9767  22.0121  22.0483
 GAMMAs            1.6171   1.6159   1.6147   1.6134   1.6122   1.6109   1.6096   1.6082
 SON VEL,M/SEC     8425.2   8430.0   8434.8   8439.5   8444.1   8448.6   8453.1   8457.5

 TRANSPORT PROPERTIES (GASES ONLY)
   CONDUCTIVITY IN UNITS OF MILLIWATTS/(CM)(K)

 VISC,MILLIPOISE  0.56940  0.57026  0.57112  0.57197  0.57283  0.57368  0.57454  0.57539

  WITH EQUILIBRIUM REACTIONS

 Cp, KJ/(KG)(K)   21.8114  21.8430  21.8752  21.9083  21.9421  21.9767  22.0121  22.0483
 CONDUCTIVITY     17.8500  17.8826  17.9152  17.9480  17.9810  18.0141  18.0473  18.0807
 PRANDTL NUMBER    0.6958   0.6966   0.6974   0.6982   0.6990   0.6999   0.7008   0.7017

  WITH FROZEN REACTIONS

 Cp, KJ/(KG)(K)   20.6282  20.6284  20.6285  20.6287  20.6289  20.6291  20.6293  20.6295
 CONDUCTIVITY     17.6509  17.6786  17.7062  17.7338  17.7615  17.7891  17.8167  17.8444
 PRANDTL NUMBER    0.6654   0.6654   0.6654   0.6653   0.6653   0.6653   0.6652   0.6652

 MASS FRACTIONS

 *H               0.99970  0.99969  0.99968  0.99967  0.99966  0.99965  0.99965  0.99964
 *H+              0.00027  0.00028  0.00029  0.00030  0.00031  0.00032  0.00033  0.00034
 *H2              0.00003  0.00003  0.00003  0.00003  0.00003  0.00003  0.00003  0.00003

  * THERMODYNAMIC PROPERTIES FITTED TO 20000.K

 NOTE. WEIGHT FRACTION OF FUEL IN TOTAL FUELS AND OF OXIDANT IN TOTAL OXIDANTS









               THERMODYNAMIC EQUILIBRIUM PROPERTIES AT ASSIGNED

                           TEMPERATURE AND PRESSURE

 CASE =                

             REACTANT                    WT FRACTION      ENERGY      TEMP
                                          (SEE NOTE)     KJ/KG-MOL      K  
 FUEL        H2                           1.0000000         0.000      0.000
 OXIDANT     H2                           1.0000000         0.000      0.000

 O/F=    1.00000  %FUEL= 50.000000  R,EQ.RATIO= 0.000000  PHI,EQ.RATIO=-1.000000

 THERMODYNAMIC PROPERTIES

 P, BAR           0.00120  0.00120  0.00120  0.00120  0.00120  0.00132  0.00132  0.00132
 T, K             5400.00  5410.00  5420.00  5430.00  5440.00  5300.00  5310.00  5320.00
 RHO, KG/CU M    2.6930-6 2.6880-6 2.6830-6 2.6781-6 2.6731-6 3.0185-6 3.0128-6 3.0071-6
 H, KJ/KG        321980.5 322201.6 322423.0 322644.8 322867.0 319771.7 319988.9 320206.3
 U, KJ/KG        277420.9 277559.0 277697.4 277836.2 277975.4 276041.9 276176.2 276310.8
 G, KJ/KG       -915281.2-917572.7-919864.5-922156.7-924449.4-888221.5-890501.0-892780.8
 S, KJ/(KG)(K)   229.1225 229.1634 229.2043 229.2452 229.2861 227.9233 227.9642 228.0051

 M, (1/n)           1.008    1.008    1.008    1.008    1.008    1.008    1.008    1.008
 (dLV/dLP)t      -1.00019 -1.00019 -1.00020 -1.00020 -1.00021 -1.00014 -1.00014 -1.00015
 (dLV/dLT)p        1.0056   1.0058   1.0060   1.0061   1.0063   1.0041   1.0043   1.0044
 Cp, KJ/(KG)(K)   22.0853  22.1232  22.1619  22.2015  22.2420  21.7001  21.7288  21.7581
 GAMMAs            1.6069   1.6055   1.6041   1.6027   1.6012   1.6214   1.6203   1.6192
 SON VEL,M/SEC     8461.8   8466.1   8470.2   8474.3   8478.3   8420.4   8425.5   8430.5

 TRANSPORT PROPERTIES (GASES ONLY)
   CONDUCTIVITY IN UNITS OF MILLIWATTS/(CM)(K)

 VISC,MILLIPOISE  0.57624  0.57710  0.57795  0.57880  0.57964  0.56775  0.56861  0.56947

  WITH EQUILIBRIUM REACTIONS

 Cp, KJ/(KG)(K)   22.0853  22.1232  22.1619  22.2015  22.2420  21.7001  21.7288  21.7581
 CONDUCTIVITY     18.1143  18.1480  18.1818  18.2158  18.2500  17.7793  17.8113  17.8435
 PRANDTL NUMBER    0.7026   0.7035   0.7045   0.7054   0.7064   0.6930   0.6937   0.6944

  WITH FROZEN REACTIONS

 Cp, KJ/(KG)(K)   20.6297  20.6299  20.6301  20.6304  20.6306  20.6276  20.6278  20.6279
 CONDUCTIVITY     17.8720  17.8997  17.9273  17.9550  17.9826  17.5963  17.6239  17.6515
 PRANDTL NUMBER    0.6652   0.6651   0.6651   0.6650   0.6650   0.6656   0.6655   0.6655

 MASS FRACTIONS

 *H               0.99963  0.99962  0.99961  0.99960  0.99959  0.99972  0.99971  0.99971
 *H+              0.00035  0.00036  0.00037  0.00038  0.00039  0.00025  0.00025  0.00026
 *H2              0.00003  0.00002  0.00002  0.00002  0.00002  0.00003  0.00003  0.00003

  * THERMODYNAMIC PROPERTIES FITTED TO 20000.K

 NOTE. WEIGHT FRACTION OF FUEL IN TOTAL FUELS AND OF OXIDANT IN TOTAL OXIDANTS









               THERMODYNAMIC EQUILIBRIUM PROPERTIES AT ASSIGNED

                           TEMPERATURE AND PRESSURE

 CASE =                

             REACTANT                    WT FRACTION      ENERGY      TEMP
                                          (SEE NOTE)     KJ/KG-MOL      K  
 FUEL        H2                           1.0000000         0.000      0.000
 OXIDANT     H2                           1.0000000         0.000      0.000

 O/F=    1.00000  %FUEL= 50.000000  R,EQ.RATIO= 0.000000  PHI,EQ.RATIO=-1.000000

 THERMODYNAMIC PROPERTIES

 P, BAR           0.00132  0.00132  0.00132  0.00132  0.00132  0.00132  0.00132  0.00132
 T, K             5330.00  5340.00  5350.00  5360.00  5370.00  5380.00  5390.00  5400.00
 RHO, KG/CU M    3.0015-6 2.9958-6 2.9902-6 2.9846-6 2.9790-6 2.9734-6 2.9679-6 2.9624-6
 H, KJ/KG        320424.0 320642.1 320860.4 321079.1 321298.1 321517.4 321737.1 321957.1
 U, KJ/KG        276445.7 276580.8 276716.3 276852.0 276988.1 277124.5 277261.2 277398.2
 G, KJ/KG       -895061.1-897341.7-899622.8-901904.3-904186.2-906468.5-908751.2-911034.3
 S, KJ/(KG)(K)   228.0460 228.0869 228.1277 228.1685 228.2094 228.2502 228.2909 228.3317

 M, (1/n)           1.008    1.008    1.008    1.008    1.008    1.008    1.008    1.008
 (dLV/dLP)t      -1.00015 -1.00015 -1.00016 -1.00016 -1.00017 -1.00017 -1.00018 -1.00018
 (dLV/dLT)p        1.0045   1.0046   1.0047   1.0049   1.0050   1.0051   1.0053   1.0054
 Cp, KJ/(KG)(K)   21.7881  21.8188  21.8503  21.8825  21.9154  21.9491  21.9836  22.0189
 GAMMAs            1.6180   1.6168   1.6156   1.6144   1.6132   1.6119   1.6107   1.6094
 SON VEL,M/SEC     8435.5   8440.4   8445.2   8450.0   8454.6   8459.2   8463.8   8468.3

 TRANSPORT PROPERTIES (GASES ONLY)
   CONDUCTIVITY IN UNITS OF MILLIWATTS/(CM)(K)

 VISC,MILLIPOISE  0.57033  0.57119  0.57205  0.57291  0.57377  0.57462  0.57548  0.57633

  WITH EQUILIBRIUM REACTIONS

 Cp, KJ/(KG)(K)   21.7881  21.8188  21.8503  21.8825  21.9154  21.9491  21.9836  22.0189
 CONDUCTIVITY     17.8757  17.9082  17.9407  17.9734  18.0062  18.0392  18.0724  18.1056
 PRANDTL NUMBER    0.6952   0.6959   0.6967   0.6975   0.6983   0.6992   0.7000   0.7009

  WITH FROZEN REACTIONS

 Cp, KJ/(KG)(K)   20.6281  20.6283  20.6284  20.6286  20.6288  20.6290  20.6292  20.6294
 CONDUCTIVITY     17.6792  17.7068  17.7345  17.7622  17.7898  17.8175  17.8452  17.8729
 PRANDTL NUMBER    0.6655   0.6654   0.6654   0.6654   0.6653   0.6653   0.6653   0.6652

 MASS FRACTIONS

 *H               0.99970  0.99969  0.99968  0.99968  0.99967  0.99966  0.99965  0.99964
 *H+              0.00027  0.00028  0.00029  0.00029  0.00030  0.00031  0.00032  0.00033
 *H2              0.00003  0.00003  0.00003  0.00003  0.00003  0.00003  0.00003  0.00003

  * THERMODYNAMIC PROPERTIES FITTED TO 20000.K

 NOTE. WEIGHT FRACTION OF FUEL IN TOTAL FUELS AND OF OXIDANT IN TOTAL OXIDANTS









               THERMODYNAMIC EQUILIBRIUM PROPERTIES AT ASSIGNED

                           TEMPERATURE AND PRESSURE

 CASE =                

             REACTANT                    WT FRACTION      ENERGY      TEMP
                                          (SEE NOTE)     KJ/KG-MOL      K  
 FUEL        H2                           1.0000000         0.000      0.000
 OXIDANT     H2                           1.0000000         0.000      0.000

 O/F=    1.00000  %FUEL= 50.000000  R,EQ.RATIO= 0.000000  PHI,EQ.RATIO=-1.000000

 THERMODYNAMIC PROPERTIES

 P, BAR           0.00132  0.00132  0.00132  0.00132  0.00148  0.00148  0.00148  0.00148
 T, K             5410.00  5420.00  5430.00  5440.00  5300.00  5310.00  5320.00  5330.00
 RHO, KG/CU M    2.9569-6 2.9514-6 2.9459-6 2.9405-6 3.3845-6 3.3781-6 3.3717-6 3.3653-6
 H, KJ/KG        322177.4 322398.2 322619.3 322840.8 319751.5 319968.1 320184.9 320402.0
 U, KJ/KG        277535.6 277673.4 277811.5 277950.0 276022.4 276156.1 276290.1 276424.4
 G, KJ/KG       -913317.8-915601.7-917886.1-920170.8-883218.4-885488.4-887758.7-890029.5
 S, KJ/(KG)(K)   228.3725 228.4133 228.4540 228.4948 226.9755 227.0163 227.0571 227.0978

 M, (1/n)           1.008    1.008    1.008    1.008    1.008    1.008    1.008    1.008
 (dLV/dLP)t      -1.00018 -1.00019 -1.00019 -1.00020 -1.00014 -1.00014 -1.00014 -1.00015
 (dLV/dLT)p        1.0055   1.0057   1.0058   1.0060   1.0039   1.0041   1.0042   1.0043
 Cp, KJ/(KG)(K)   22.0549  22.0918  22.1296  22.1682  21.6430  21.6699  21.6976  21.7258
 GAMMAs            1.6080   1.6067   1.6053   1.6039   1.6236   1.6226   1.6215   1.6204
 SON VEL,M/SEC     8472.6   8477.0   8481.2   8485.4   8426.2   8431.4   8436.6   8441.7

 TRANSPORT PROPERTIES (GASES ONLY)
   CONDUCTIVITY IN UNITS OF MILLIWATTS/(CM)(K)

 VISC,MILLIPOISE  0.57719  0.57804  0.57889  0.57975  0.56783  0.56869  0.56955  0.57042

  WITH EQUILIBRIUM REACTIONS

 Cp, KJ/(KG)(K)   22.0549  22.0918  22.1296  22.1682  21.6430  21.6699  21.6976  21.7258
 CONDUCTIVITY     18.1390  18.1726  18.2063  18.2402  17.7726  17.8043  17.8362  17.8682
 PRANDTL NUMBER    0.7018   0.7027   0.7036   0.7046   0.6915   0.6922   0.6929   0.6936

  WITH FROZEN REACTIONS

 Cp, KJ/(KG)(K)   20.6296  20.6298  20.6300  20.6302  20.6273  20.6275  20.6276  20.6278
 CONDUCTIVITY     17.9006  17.9283  17.9559  17.9836  17.5969  17.6245  17.6522  17.6799
 PRANDTL NUMBER    0.6652   0.6651   0.6651   0.6651   0.6656   0.6656   0.6656   0.6655

 MASS FRACTIONS

 *H               0.99963  0.99962  0.99961  0.99960  0.99973  0.99972  0.99972  0.99971
 *H+              0.00034  0.00035  0.00036  0.00037  0.00023  0.00024  0.00025  0.00025
 *H2              0.00003  0.00003  0.00003  0.00003  0.00004  0.00004  0.00004  0.00004

  * THERMODYNAMIC PROPERTIES FITTED TO 20000.K

 NOTE. WEIGHT FRACTION OF FUEL IN TOTAL FUELS AND OF OXIDANT IN TOTAL OXIDANTS









               THERMODYNAMIC EQUILIBRIUM PROPERTIES AT ASSIGNED

                           TEMPERATURE AND PRESSURE

 CASE =                

             REACTANT                    WT FRACTION      ENERGY      TEMP
                                          (SEE NOTE)     KJ/KG-MOL      K  
 FUEL        H2                           1.0000000         0.000      0.000
 OXIDANT     H2                           1.0000000         0.000      0.000

 O/F=    1.00000  %FUEL= 50.000000  R,EQ.RATIO= 0.000000  PHI,EQ.RATIO=-1.000000

 THERMODYNAMIC PROPERTIES

 P, BAR           0.00148  0.00148  0.00148  0.00148  0.00148  0.00148  0.00148  0.00148
 T, K             5340.00  5350.00  5360.00  5370.00  5380.00  5390.00  5400.00  5410.00
 RHO, KG/CU M    3.3590-6 3.3527-6 3.3464-6 3.3402-6 3.3339-6 3.3277-6 3.3215-6 3.3153-6
 H, KJ/KG        320619.4 320837.1 321055.1 321273.4 321492.0 321711.0 321930.2 322149.8
 U, KJ/KG        276558.9 276693.7 276828.8 276964.2 277099.9 277236.0 277372.3 277508.9
 G, KJ/KG       -892300.7-894572.3-896844.3-899116.7-901389.5-903662.7-905936.3-908210.4
 S, KJ/(KG)(K)   227.1386 227.1793 227.2200 227.2607 227.3014 227.3421 227.3827 227.4233

 M, (1/n)           1.008    1.008    1.008    1.008    1.008    1.008    1.008    1.008
 (dLV/dLP)t      -1.00015 -1.00015 -1.00016 -1.00016 -1.00016 -1.00017 -1.00017 -1.00018
 (dLV/dLT)p        1.0044   1.0045   1.0046   1.0047   1.0049   1.0050   1.0051   1.0053
 Cp, KJ/(KG)(K)   21.7548  21.7844  21.8148  21.8458  21.8776  21.9101  21.9434  21.9774
 GAMMAs            1.6193   1.6182   1.6170   1.6159   1.6147   1.6134   1.6122   1.6109
 SON VEL,M/SEC     8446.8   8451.8   8456.7   8461.5   8466.3   8471.0   8475.6   8480.2

 TRANSPORT PROPERTIES (GASES ONLY)
   CONDUCTIVITY IN UNITS OF MILLIWATTS/(CM)(K)

 VISC,MILLIPOISE  0.57128  0.57214  0.57300  0.57386  0.57472  0.57558  0.57644  0.57729

  WITH EQUILIBRIUM REACTIONS

 Cp, KJ/(KG)(K)   21.7548  21.7844  21.8148  21.8458  21.8776  21.9101  21.9434  21.9774
 CONDUCTIVITY     17.9003  17.9326  17.9650  17.9975  18.0302  18.0630  18.0960  18.1291
 PRANDTL NUMBER    0.6943   0.6950   0.6958   0.6966   0.6974   0.6982   0.6990   0.6998

  WITH FROZEN REACTIONS

 Cp, KJ/(KG)(K)   20.6279  20.6281  20.6283  20.6284  20.6286  20.6288  20.6290  20.6292
 CONDUCTIVITY     17.7076  17.7353  17.7630  17.7907  17.8184  17.8461  17.8738  17.9016
 PRANDTL NUMBER    0.6655   0.6655   0.6654   0.6654   0.6654   0.6653   0.6653   0.6653

 MASS FRACTIONS

 *H               0.99970  0.99970  0.99969  0.99968  0.99967  0.99966  0.99966  0.99965
 *H+              0.00026  0.00027  0.00028  0.00029  0.00030  0.00030  0.00031  0.00032
 *H2              0.00003  0.00003  0.00003  0.00003  0.00003  0.00003  0.00003  0.00003

  * THERMODYNAMIC PROPERTIES FITTED TO 20000.K

 NOTE. WEIGHT FRACTION OF FUEL IN TOTAL FUELS AND OF OXIDANT IN TOTAL OXIDANTS









               THERMODYNAMIC EQUILIBRIUM PROPERTIES AT ASSIGNED

                           TEMPERATURE AND PRESSURE

 CASE =                

             REACTANT                    WT FRACTION      ENERGY      TEMP
                                          (SEE NOTE)     KJ/KG-MOL      K  
 FUEL        H2                           1.0000000         0.000      0.000
 OXIDANT     H2                           1.0000000         0.000      0.000

 O/F=    1.00000  %FUEL= 50.000000  R,EQ.RATIO= 0.000000  PHI,EQ.RATIO=-1.000000

 THERMODYNAMIC PROPERTIES

 P, BAR           0.00148  0.00148  0.00148  0.00165  0.00165  0.00165  0.00165  0.00165
 T, K             5420.00  5430.00  5440.00  5300.00  5310.00  5320.00  5330.00  5340.00
 RHO, KG/CU M    3.3092-6 3.3031-6 3.2970-6 3.7733-6 3.7662-6 3.7590-6 3.7520-6 3.7449-6
 H, KJ/KG        322369.8 322590.1 322810.7 319733.1 319949.2 320165.5 320382.1 320598.9
 U, KJ/KG        277645.9 277783.3 277920.9 276004.7 276137.9 276271.4 276405.1 276539.1
 G, KJ/KG       -910484.8-912759.6-915034.9-878463.6-880724.6-882986.0-885247.7-887509.9
 S, KJ/(KG)(K)   227.4639 227.5046 227.5452 226.0749 226.1156 226.1563 226.1970 226.2376

 M, (1/n)           1.008    1.008    1.008    1.008    1.008    1.008    1.008    1.008
 (dLV/dLP)t      -1.00018 -1.00019 -1.00019 -1.00013 -1.00013 -1.00014 -1.00014 -1.00014
 (dLV/dLT)p        1.0054   1.0055   1.0057   1.0038   1.0039   1.0040   1.0041   1.0042
 Cp, KJ/(KG)(K)   22.0122  22.0478  22.0842  21.5919  21.6174  21.6435  21.6702  21.6975
 GAMMAs            1.6097   1.6083   1.6070   1.6257   1.6247   1.6237   1.6226   1.6216
 SON VEL,M/SEC     8484.7   8489.1   8493.4   8431.4   8436.8   8442.1   8447.4   8452.6

 TRANSPORT PROPERTIES (GASES ONLY)
   CONDUCTIVITY IN UNITS OF MILLIWATTS/(CM)(K)

 VISC,MILLIPOISE  0.57815  0.57901  0.57986  0.56790  0.56876  0.56963  0.57049  0.57136

  WITH EQUILIBRIUM REACTIONS

 Cp, KJ/(KG)(K)   22.0122  22.0478  22.0842  21.5919  21.6174  21.6435  21.6702  21.6975
 CONDUCTIVITY     18.1623  18.1957  18.2292  17.7669  17.7984  17.8300  17.8617  17.8936
 PRANDTL NUMBER    0.7007   0.7016   0.7025   0.6902   0.6908   0.6915   0.6921   0.6928

  WITH FROZEN REACTIONS

 Cp, KJ/(KG)(K)   20.6294  20.6296  20.6298  20.6271  20.6272  20.6274  20.6275  20.6277
 CONDUCTIVITY     17.9293  17.9570  17.9848  17.5974  17.6251  17.6528  17.6805  17.7082
 PRANDTL NUMBER    0.6652   0.6652   0.6651   0.6657   0.6656   0.6656   0.6656   0.6656

 MASS FRACTIONS

 *H               0.99964  0.99963  0.99962  0.99974  0.99973  0.99973  0.99972  0.99971
 *H+              0.00033  0.00034  0.00035  0.00022  0.00023  0.00023  0.00024  0.00025
 *H2              0.00003  0.00003  0.00003  0.00004  0.00004  0.00004  0.00004  0.00004

  * THERMODYNAMIC PROPERTIES FITTED TO 20000.K

 NOTE. WEIGHT FRACTION OF FUEL IN TOTAL FUELS AND OF OXIDANT IN TOTAL OXIDANTS









               THERMODYNAMIC EQUILIBRIUM PROPERTIES AT ASSIGNED

                           TEMPERATURE AND PRESSURE

 CASE =                

             REACTANT                    WT FRACTION      ENERGY      TEMP
                                          (SEE NOTE)     KJ/KG-MOL      K  
 FUEL        H2                           1.0000000         0.000      0.000
 OXIDANT     H2                           1.0000000         0.000      0.000

 O/F=    1.00000  %FUEL= 50.000000  R,EQ.RATIO= 0.000000  PHI,EQ.RATIO=-1.000000

 THERMODYNAMIC PROPERTIES

 P, BAR           0.00165  0.00165  0.00165  0.00165  0.00165  0.00165  0.00165  0.00165
 T, K             5350.00  5360.00  5370.00  5380.00  5390.00  5400.00  5410.00  5420.00
 RHO, KG/CU M    3.7379-6 3.7309-6 3.7239-6 3.7169-6 3.7100-6 3.7031-6 3.6962-6 3.6894-6
 H, KJ/KG        320816.0 321033.4 321251.1 321469.1 321687.4 321906.0 322124.9 322344.1
 U, KJ/KG        276673.3 276807.9 276942.7 277077.8 277213.2 277348.9 277484.8 277621.2
 G, KJ/KG       -889772.5-892035.5-894298.8-896562.6-898826.8-901091.5-903356.5-905621.9
 S, KJ/(KG)(K)   226.2782 226.3188 226.3594 226.3999 226.4405 226.4810 226.5215 226.5620

 M, (1/n)           1.008    1.008    1.008    1.008    1.008    1.008    1.008    1.008
 (dLV/dLP)t      -1.00015 -1.00015 -1.00015 -1.00016 -1.00016 -1.00017 -1.00017 -1.00017
 (dLV/dLT)p        1.0043   1.0044   1.0045   1.0046   1.0048   1.0049   1.0050   1.0051
 Cp, KJ/(KG)(K)   21.7256  21.7542  21.7836  21.8136  21.8444  21.8758  21.9080  21.9409
 GAMMAs            1.6205   1.6194   1.6183   1.6171   1.6160   1.6148   1.6136   1.6123
 SON VEL,M/SEC     8457.7   8462.8   8467.7   8472.7   8477.5   8482.3   8487.0   8491.7

 TRANSPORT PROPERTIES (GASES ONLY)
   CONDUCTIVITY IN UNITS OF MILLIWATTS/(CM)(K)

 VISC,MILLIPOISE  0.57222  0.57308  0.57394  0.57481  0.57567  0.57653  0.57739  0.57825

  WITH EQUILIBRIUM REACTIONS

 Cp, KJ/(KG)(K)   21.7256  21.7542  21.7836  21.8136  21.8444  21.8758  21.9080  21.9409
 CONDUCTIVITY     17.9256  17.9577  17.9900  18.0223  18.0549  18.0875  18.1203  18.1532
 PRANDTL NUMBER    0.6935   0.6942   0.6950   0.6957   0.6965   0.6973   0.6981   0.6989

  WITH FROZEN REACTIONS

 Cp, KJ/(KG)(K)   20.6278  20.6280  20.6281  20.6283  20.6285  20.6287  20.6288  20.6290
 CONDUCTIVITY     17.7359  17.7637  17.7914  17.8191  17.8469  17.8747  17.9024  17.9302
 PRANDTL NUMBER    0.6655   0.6655   0.6655   0.6654   0.6654   0.6654   0.6653   0.6653

 MASS FRACTIONS

 *H               0.99971  0.99970  0.99969  0.99968  0.99968  0.99967  0.99966  0.99965
 *H+              0.00026  0.00026  0.00027  0.00028  0.00029  0.00030  0.00031  0.00031
 *H2              0.00004  0.00004  0.00004  0.00004  0.00004  0.00003  0.00003  0.00003

  * THERMODYNAMIC PROPERTIES FITTED TO 20000.K

 NOTE. WEIGHT FRACTION OF FUEL IN TOTAL FUELS AND OF OXIDANT IN TOTAL OXIDANTS









               THERMODYNAMIC EQUILIBRIUM PROPERTIES AT ASSIGNED

                           TEMPERATURE AND PRESSURE

 CASE =                

             REACTANT                    WT FRACTION      ENERGY      TEMP
                                          (SEE NOTE)     KJ/KG-MOL      K  
 FUEL        H2                           1.0000000         0.000      0.000
 OXIDANT     H2                           1.0000000         0.000      0.000

 O/F=    1.00000  %FUEL= 50.000000  R,EQ.RATIO= 0.000000  PHI,EQ.RATIO=-1.000000

 THERMODYNAMIC PROPERTIES

 P, BAR           0.00165  0.00165  0.00180  0.00180  0.00180  0.00180  0.00180  0.00180
 T, K             5430.00  5440.00  5300.00  5310.00  5320.00  5330.00  5340.00  5350.00
 RHO, KG/CU M    3.6825-6 3.6757-6 4.1164-6 4.1086-6 4.1008-6 4.0931-6 4.0854-6 4.0777-6
 H, KJ/KG        322563.7 322783.6 319719.0 319934.7 320150.6 320366.7 320583.1 320799.8
 U, KJ/KG        277757.8 277894.7 275991.1 276123.9 276257.0 276390.3 276523.9 276657.7
 G, KJ/KG       -907887.7-910153.9-874658.8-876912.5-879166.7-881421.2-883676.2-885931.6
 S, KJ/(KG)(K)   226.6025 226.6429 225.3543 225.3950 225.4356 225.4762 225.5167 225.5573

 M, (1/n)           1.008    1.008    1.008    1.008    1.008    1.008    1.008    1.008
 (dLV/dLP)t      -1.00018 -1.00018 -1.00013 -1.00013 -1.00013 -1.00014 -1.00014 -1.00014
 (dLV/dLT)p        1.0053   1.0054   1.0036   1.0037   1.0038   1.0039   1.0040   1.0041
 Cp, KJ/(KG)(K)   21.9745  22.0090  21.5532  21.5775  21.6025  21.6280  21.6541  21.6809
 GAMMAs            1.6111   1.6098   1.6272   1.6263   1.6253   1.6243   1.6233   1.6222
 SON VEL,M/SEC     8496.3   8500.8   8435.4   8440.9   8446.3   8451.7   8457.0   8462.2

 TRANSPORT PROPERTIES (GASES ONLY)
   CONDUCTIVITY IN UNITS OF MILLIWATTS/(CM)(K)

 VISC,MILLIPOISE  0.57911  0.57997  0.56795  0.56882  0.56968  0.57055  0.57141  0.57228

  WITH EQUILIBRIUM REACTIONS

 Cp, KJ/(KG)(K)   21.9745  22.0090  21.5532  21.5775  21.6025  21.6280  21.6541  21.6809
 CONDUCTIVITY     18.1863  18.2195  17.7628  17.7941  17.8255  17.8570  17.8887  17.9204
 PRANDTL NUMBER    0.6997   0.7006   0.6891   0.6898   0.6904   0.6910   0.6917   0.6924

  WITH FROZEN REACTIONS

 Cp, KJ/(KG)(K)   20.6292  20.6294  20.6269  20.6270  20.6271  20.6273  20.6274  20.6276
 CONDUCTIVITY     17.9580  17.9857  17.5978  17.6255  17.6532  17.6809  17.7087  17.7364
 PRANDTL NUMBER    0.6652   0.6652   0.6657   0.6657   0.6657   0.6656   0.6656   0.6656

 MASS FRACTIONS

 *H               0.99964  0.99963  0.99974  0.99974  0.99973  0.99973  0.99972  0.99971
 *H+              0.00032  0.00033  0.00021  0.00022  0.00022  0.00023  0.00024  0.00024
 *H2              0.00003  0.00003  0.00005  0.00005  0.00004  0.00004  0.00004  0.00004

  * THERMODYNAMIC PROPERTIES FITTED TO 20000.K

 NOTE. WEIGHT FRACTION OF FUEL IN TOTAL FUELS AND OF OXIDANT IN TOTAL OXIDANTS









               THERMODYNAMIC EQUILIBRIUM PROPERTIES AT ASSIGNED

                           TEMPERATURE AND PRESSURE

 CASE =                

             REACTANT                    WT FRACTION      ENERGY      TEMP
                                          (SEE NOTE)     KJ/KG-MOL      K  
 FUEL        H2                           1.0000000         0.000      0.000
 OXIDANT     H2                           1.0000000         0.000      0.000

 O/F=    1.00000  %FUEL= 50.000000  R,EQ.RATIO= 0.000000  PHI,EQ.RATIO=-1.000000

 THERMODYNAMIC PROPERTIES

 P, BAR           0.00180  0.00180  0.00180  0.00180  0.00180  0.00180  0.00180  0.00180
 T, K             5360.00  5370.00  5380.00  5390.00  5400.00  5410.00  5420.00  5430.00
 RHO, KG/CU M    4.0701-6 4.0625-6 4.0549-6 4.0473-6 4.0398-6 4.0323-6 4.0248-6 4.0174-6
 H, KJ/KG        321016.8 321234.0 321451.5 321669.3 321887.4 322105.8 322324.5 322543.5
 U, KJ/KG        276791.8 276926.2 277060.8 277195.7 277330.9 277466.4 277602.2 277738.3
 G, KJ/KG       -888187.4-890443.5-892700.1-894957.1-897214.5-899472.3-901730.5-903989.1
 S, KJ/(KG)(K)   225.5978 225.6383 225.6787 225.7192 225.7596 225.8000 225.8404 225.8808

 M, (1/n)           1.008    1.008    1.008    1.008    1.008    1.008    1.008    1.008
 (dLV/dLP)t      -1.00015 -1.00015 -1.00015 -1.00016 -1.00016 -1.00016 -1.00017 -1.00017
 (dLV/dLT)p        1.0042   1.0044   1.0045   1.0046   1.0047   1.0048   1.0049   1.0051
 Cp, KJ/(KG)(K)   21.7083  21.7364  21.7651  21.7944  21.8245  21.8553  21.8867  21.9189
 GAMMAs            1.6212   1.6201   1.6190   1.6179   1.6167   1.6156   1.6144   1.6132
 SON VEL,M/SEC     8467.4   8472.5   8477.5   8482.5   8487.4   8492.3   8497.0   8501.7

 TRANSPORT PROPERTIES (GASES ONLY)
   CONDUCTIVITY IN UNITS OF MILLIWATTS/(CM)(K)

 VISC,MILLIPOISE  0.57314  0.57401  0.57487  0.57574  0.57660  0.57746  0.57832  0.57918

  WITH EQUILIBRIUM REACTIONS

 Cp, KJ/(KG)(K)   21.7083  21.7364  21.7651  21.7944  21.8245  21.8553  21.8867  21.9189
 CONDUCTIVITY     17.9524  17.9844  18.0166  18.0488  18.0813  18.1138  18.1465  18.1794
 PRANDTL NUMBER    0.6931   0.6938   0.6945   0.6952   0.6960   0.6967   0.6975   0.6983

  WITH FROZEN REACTIONS

 Cp, KJ/(KG)(K)   20.6277  20.6279  20.6281  20.6282  20.6284  20.6286  20.6287  20.6289
 CONDUCTIVITY     17.7642  17.7919  17.8197  17.8475  17.8753  17.9031  17.9309  17.9587
 PRANDTL NUMBER    0.6655   0.6655   0.6655   0.6654   0.6654   0.6654   0.6653   0.6653

 MASS FRACTIONS

 *H               0.99971  0.99970  0.99969  0.99969  0.99968  0.99967  0.99966  0.99965
 *H+              0.00025  0.00026  0.00027  0.00028  0.00028  0.00029  0.00030  0.00031
 *H2              0.00004  0.00004  0.00004  0.00004  0.00004  0.00004  0.00004  0.00004

  * THERMODYNAMIC PROPERTIES FITTED TO 20000.K

 NOTE. WEIGHT FRACTION OF FUEL IN TOTAL FUELS AND OF OXIDANT IN TOTAL OXIDANTS









               THERMODYNAMIC EQUILIBRIUM PROPERTIES AT ASSIGNED

                           TEMPERATURE AND PRESSURE

 CASE =                

             REACTANT                    WT FRACTION      ENERGY      TEMP
                                          (SEE NOTE)     KJ/KG-MOL      K  
 FUEL        H2                           1.0000000         0.000      0.000
 OXIDANT     H2                           1.0000000         0.000      0.000

 O/F=    1.00000  %FUEL= 50.000000  R,EQ.RATIO= 0.000000  PHI,EQ.RATIO=-1.000000

 THERMODYNAMIC PROPERTIES

 P, BAR           0.00180  0.00200  0.00200  0.00200  0.00200  0.00200  0.00200  0.00200
 T, K             5440.00  5300.00  5310.00  5320.00  5330.00  5340.00  5350.00  5360.00
 RHO, KG/CU M    4.0100-6 4.5738-6 4.5651-6 4.5565-6 4.5480-6 4.5394-6 4.5309-6 4.5224-6
 H, KJ/KG        322762.9 319702.6 319917.8 320133.2 320348.9 320564.8 320781.0 320997.4
 U, KJ/KG        277874.7 275975.2 276107.6 276240.2 276373.1 276506.2 276639.5 276773.1
 G, KJ/KG       -906248.1-870051.6-872296.6-874542.1-876787.9-879034.1-881280.8-883527.8
 S, KJ/(KG)(K)   225.9211 224.4819 224.5225 224.5630 224.6035 224.6440 224.6844 224.7249

 M, (1/n)           1.008    1.008    1.008    1.008    1.008    1.008    1.008    1.008
 (dLV/dLP)t      -1.00018 -1.00013 -1.00013 -1.00013 -1.00013 -1.00014 -1.00014 -1.00014
 (dLV/dLT)p        1.0052   1.0035   1.0036   1.0037   1.0038   1.0039   1.0040   1.0041
 Cp, KJ/(KG)(K)   21.9518  21.5089  21.5319  21.5555  21.5796  21.6043  21.6296  21.6556
 GAMMAs            1.6120   1.6290   1.6281   1.6272   1.6262   1.6253   1.6243   1.6233
 SON VEL,M/SEC     8506.4   8440.0   8445.6   8451.2   8456.7   8462.1   8467.5   8472.8

 TRANSPORT PROPERTIES (GASES ONLY)
   CONDUCTIVITY IN UNITS OF MILLIWATTS/(CM)(K)

 VISC,MILLIPOISE  0.58004  0.56801  0.56888  0.56975  0.57061  0.57148  0.57235  0.57322

  WITH EQUILIBRIUM REACTIONS

 Cp, KJ/(KG)(K)   21.9518  21.5089  21.5319  21.5555  21.5796  21.6043  21.6296  21.6556
 CONDUCTIVITY     18.2124  17.7584  17.7895  17.8206  17.8519  17.8833  17.9148  17.9465
 PRANDTL NUMBER    0.6991   0.6880   0.6886   0.6892   0.6898   0.6904   0.6910   0.6917

  WITH FROZEN REACTIONS

 Cp, KJ/(KG)(K)   20.6291  20.6266  20.6268  20.6269  20.6270  20.6272  20.6273  20.6275
 CONDUCTIVITY     17.9865  17.5983  17.6260  17.6537  17.6815  17.7092  17.7370  17.7648
 PRANDTL NUMBER    0.6653   0.6658   0.6657   0.6657   0.6657   0.6656   0.6656   0.6656

 MASS FRACTIONS

 *H               0.99965  0.99975  0.99974  0.99974  0.99973  0.99973  0.99972  0.99972
 *H+              0.00032  0.00020  0.00021  0.00021  0.00022  0.00023  0.00023  0.00024
 *H2              0.00004  0.00005  0.00005  0.00005  0.00005  0.00005  0.00005  0.00005

  * THERMODYNAMIC PROPERTIES FITTED TO 20000.K

 NOTE. WEIGHT FRACTION OF FUEL IN TOTAL FUELS AND OF OXIDANT IN TOTAL OXIDANTS









               THERMODYNAMIC EQUILIBRIUM PROPERTIES AT ASSIGNED

                           TEMPERATURE AND PRESSURE

 CASE =                

             REACTANT                    WT FRACTION      ENERGY      TEMP
                                          (SEE NOTE)     KJ/KG-MOL      K  
 FUEL        H2                           1.0000000         0.000      0.000
 OXIDANT     H2                           1.0000000         0.000      0.000

 O/F=    1.00000  %FUEL= 50.000000  R,EQ.RATIO= 0.000000  PHI,EQ.RATIO=-1.000000

 THERMODYNAMIC PROPERTIES

 P, BAR           0.00200  0.00200  0.00200  0.00200  0.00200  0.00200  0.00200  0.00200
 T, K             5370.00  5380.00  5390.00  5400.00  5410.00  5420.00  5430.00  5440.00
 RHO, KG/CU M    4.5139-6 4.5055-6 4.4971-6 4.4888-6 4.4804-6 4.4721-6 4.4638-6 4.4556-6
 H, KJ/KG        321214.1 321431.1 321648.3 321865.8 322083.6 322301.7 322520.1 322738.8
 U, KJ/KG        276907.0 277041.1 277175.4 277310.1 277445.0 277580.2 277715.7 277851.5
 G, KJ/KG       -885775.3-888023.1-890271.4-892520.1-894769.1-897018.6-899268.5-901518.7
 S, KJ/(KG)(K)   224.7652 224.8056 224.8460 224.8863 224.9266 224.9668 225.0071 225.0473

 M, (1/n)           1.008    1.008    1.008    1.008    1.008    1.008    1.008    1.008
 (dLV/dLP)t      -1.00015 -1.00015 -1.00015 -1.00016 -1.00016 -1.00016 -1.00017 -1.00017
 (dLV/dLT)p        1.0042   1.0043   1.0044   1.0045   1.0046   1.0047   1.0048   1.0050
 Cp, KJ/(KG)(K)   21.6821  21.7093  21.7371  21.7655  21.7947  21.8245  21.8549  21.8861
 GAMMAs            1.6222   1.6212   1.6201   1.6190   1.6179   1.6168   1.6156   1.6145
 SON VEL,M/SEC     8478.0   8483.2   8488.3   8493.4   8498.3   8503.3   8508.1   8512.9

 TRANSPORT PROPERTIES (GASES ONLY)
   CONDUCTIVITY IN UNITS OF MILLIWATTS/(CM)(K)

 VISC,MILLIPOISE  0.57408  0.57495  0.57582  0.57668  0.57755  0.57841  0.57927  0.58014

  WITH EQUILIBRIUM REACTIONS

 Cp, KJ/(KG)(K)   21.6821  21.7093  21.7371  21.7655  21.7947  21.8244  21.8549  21.8861
 CONDUCTIVITY     17.9782  18.0101  18.0422  18.0743  18.1066  18.1390  18.1716  18.2043
 PRANDTL NUMBER    0.6924   0.6930   0.6937   0.6945   0.6952   0.6959   0.6967   0.6975

  WITH FROZEN REACTIONS

 Cp, KJ/(KG)(K)   20.6276  20.6278  20.6279  20.6281  20.6283  20.6284  20.6286  20.6288
 CONDUCTIVITY     17.7926  17.8204  17.8482  17.8760  17.9038  17.9316  17.9595  17.9873
 PRANDTL NUMBER    0.6656   0.6655   0.6655   0.6655   0.6654   0.6654   0.6654   0.6653

 MASS FRACTIONS

 *H               0.99971  0.99970  0.99970  0.99969  0.99968  0.99967  0.99967  0.99966
 *H+              0.00025  0.00025  0.00026  0.00027  0.00028  0.00029  0.00029  0.00030
 *H2              0.00004  0.00004  0.00004  0.00004  0.00004  0.00004  0.00004  0.00004

  * THERMODYNAMIC PROPERTIES FITTED TO 20000.K

 NOTE. WEIGHT FRACTION OF FUEL IN TOTAL FUELS AND OF OXIDANT IN TOTAL OXIDANTS









               THERMODYNAMIC EQUILIBRIUM PROPERTIES AT ASSIGNED

                           TEMPERATURE AND PRESSURE

 CASE =                

             REACTANT                    WT FRACTION      ENERGY      TEMP
                                          (SEE NOTE)     KJ/KG-MOL      K  
 FUEL        H2                           1.0000000         0.000      0.000
 OXIDANT     H2                           1.0000000         0.000      0.000

 O/F=    1.00000  %FUEL= 50.000000  R,EQ.RATIO= 0.000000  PHI,EQ.RATIO=-1.000000

 THERMODYNAMIC PROPERTIES

 P, BAR           0.00225  0.00225  0.00225  0.00225  0.00225  0.00225  0.00225  0.00225
 T, K             5300.00  5310.00  5320.00  5330.00  5340.00  5350.00  5360.00  5370.00
 RHO, KG/CU M    5.1456-6 5.1359-6 5.1262-6 5.1165-6 5.1069-6 5.0973-6 5.0878-6 5.0783-6
 H, KJ/KG        319685.0 319899.7 320114.7 320329.8 320545.2 320760.9 320976.8 321192.9
 U, KJ/KG        275958.2 276090.2 276222.3 276354.7 276487.3 276620.1 276753.2 276886.5
 G, KJ/KG       -864901.3-867136.6-869372.3-871608.3-873844.8-876081.7-878319.0-880556.7
 S, KJ/(KG)(K)   223.5068 223.5473 223.5878 223.6282 223.6686 223.7089 223.7492 223.7895

 M, (1/n)           1.008    1.008    1.008    1.008    1.008    1.008    1.008    1.008
 (dLV/dLP)t      -1.00012 -1.00013 -1.00013 -1.00013 -1.00013 -1.00014 -1.00014 -1.00014
 (dLV/dLT)p        1.0033   1.0034   1.0035   1.0036   1.0037   1.0038   1.0039   1.0040
 Cp, KJ/(KG)(K)   21.4625  21.4841  21.5062  21.5288  21.5521  21.5759  21.6002  21.6252
 GAMMAs            1.6309   1.6301   1.6292   1.6283   1.6274   1.6264   1.6255   1.6245
 SON VEL,M/SEC     8444.9   8450.6   8456.3   8461.9   8467.5   8473.0   8478.5   8483.9

 TRANSPORT PROPERTIES (GASES ONLY)
   CONDUCTIVITY IN UNITS OF MILLIWATTS/(CM)(K)

 VISC,MILLIPOISE  0.56808  0.56895  0.56982  0.57069  0.57156  0.57243  0.57329  0.57416

  WITH EQUILIBRIUM REACTIONS

 Cp, KJ/(KG)(K)   21.4625  21.4841  21.5062  21.5288  21.5521  21.5759  21.6002  21.6251
 CONDUCTIVITY     17.7543  17.7850  17.8159  17.8469  17.8780  17.9093  17.9406  17.9721
 PRANDTL NUMBER    0.6867   0.6873   0.6878   0.6884   0.6890   0.6896   0.6902   0.6909

  WITH FROZEN REACTIONS

 Cp, KJ/(KG)(K)   20.6264  20.6265  20.6267  20.6268  20.6269  20.6270  20.6272  20.6273
 CONDUCTIVITY     17.5987  17.6265  17.6542  17.6820  17.7098  17.7376  17.7654  17.7932
 PRANDTL NUMBER    0.6658   0.6658   0.6658   0.6657   0.6657   0.6657   0.6656   0.6656

 MASS FRACTIONS

 *H               0.99975  0.99975  0.99974  0.99974  0.99973  0.99973  0.99972  0.99972
 *H+              0.00019  0.00019  0.00020  0.00021  0.00021  0.00022  0.00023  0.00023
 *H2              0.00006  0.00006  0.00006  0.00005  0.00005  0.00005  0.00005  0.00005

  * THERMODYNAMIC PROPERTIES FITTED TO 20000.K

 NOTE. WEIGHT FRACTION OF FUEL IN TOTAL FUELS AND OF OXIDANT IN TOTAL OXIDANTS









               THERMODYNAMIC EQUILIBRIUM PROPERTIES AT ASSIGNED

                           TEMPERATURE AND PRESSURE

 CASE =                

             REACTANT                    WT FRACTION      ENERGY      TEMP
                                          (SEE NOTE)     KJ/KG-MOL      K  
 FUEL        H2                           1.0000000         0.000      0.000
 OXIDANT     H2                           1.0000000         0.000      0.000

 O/F=    1.00000  %FUEL= 50.000000  R,EQ.RATIO= 0.000000  PHI,EQ.RATIO=-1.000000

 THERMODYNAMIC PROPERTIES

 P, BAR           0.00225  0.00225  0.00225  0.00225  0.00225  0.00225  0.00225  0.00250
 T, K             5380.00  5390.00  5400.00  5410.00  5420.00  5430.00  5440.00  5300.00
 RHO, KG/CU M    5.0688-6 5.0594-6 5.0499-6 5.0406-6 5.0312-6 5.0219-6 5.0126-6 5.7174-6
 H, KJ/KG        321409.3 321625.9 321842.8 322060.0 322277.4 322495.2 322713.2 319669.9
 U, KJ/KG        277020.0 277153.8 277287.9 277422.2 277556.8 277691.6 277826.7 275943.7
 G, KJ/KG       -882794.8-885033.3-887272.2-889511.5-891751.2-893991.3-896231.8-860294.3
 S, KJ/(KG)(K)   223.8298 223.8700 223.9102 223.9504 223.9905 224.0307 224.0708 222.6347

 M, (1/n)           1.008    1.008    1.008    1.008    1.008    1.008    1.008    1.008
 (dLV/dLP)t      -1.00014 -1.00015 -1.00015 -1.00015 -1.00016 -1.00016 -1.00016 -1.00012
 (dLV/dLT)p        1.0041   1.0042   1.0043   1.0044   1.0045   1.0046   1.0047   1.0032
 Cp, KJ/(KG)(K)   21.6507  21.6768  21.7036  21.7309  21.7590  21.7876  21.8169  21.4237
 GAMMAs            1.6235   1.6225   1.6215   1.6204   1.6193   1.6182   1.6171   1.6326
 SON VEL,M/SEC     8489.2   8494.4   8499.6   8504.8   8509.8   8514.9   8519.8   8449.0

 TRANSPORT PROPERTIES (GASES ONLY)
   CONDUCTIVITY IN UNITS OF MILLIWATTS/(CM)(K)

 VISC,MILLIPOISE  0.57503  0.57590  0.57677  0.57764  0.57850  0.57937  0.58024  0.56813

  WITH EQUILIBRIUM REACTIONS

 Cp, KJ/(KG)(K)   21.6507  21.6768  21.7036  21.7309  21.7590  21.7876  21.8169  21.4237
 CONDUCTIVITY     18.0037  18.0355  18.0674  18.0993  18.1315  18.1637  18.1961  17.7512
 PRANDTL NUMBER    0.6915   0.6922   0.6928   0.6935   0.6942   0.6950   0.6957   0.6857

  WITH FROZEN REACTIONS

 Cp, KJ/(KG)(K)   20.6275  20.6276  20.6278  20.6279  20.6281  20.6283  20.6284  20.6262
 CONDUCTIVITY     17.8210  17.8489  17.8767  17.9046  17.9324  17.9603  17.9882  17.5991
 PRANDTL NUMBER    0.6656   0.6656   0.6655   0.6655   0.6655   0.6654   0.6654   0.6658

 MASS FRACTIONS

 *H               0.99971  0.99970  0.99970  0.99969  0.99968  0.99968  0.99967  0.99976
 *H+              0.00024  0.00025  0.00025  0.00026  0.00027  0.00028  0.00029  0.00018
 *H2              0.00005  0.00005  0.00005  0.00005  0.00005  0.00004  0.00004  0.00006

  * THERMODYNAMIC PROPERTIES FITTED TO 20000.K

 NOTE. WEIGHT FRACTION OF FUEL IN TOTAL FUELS AND OF OXIDANT IN TOTAL OXIDANTS









               THERMODYNAMIC EQUILIBRIUM PROPERTIES AT ASSIGNED

                           TEMPERATURE AND PRESSURE

 CASE =                

             REACTANT                    WT FRACTION      ENERGY      TEMP
                                          (SEE NOTE)     KJ/KG-MOL      K  
 FUEL        H2                           1.0000000         0.000      0.000
 OXIDANT     H2                           1.0000000         0.000      0.000

 O/F=    1.00000  %FUEL= 50.000000  R,EQ.RATIO= 0.000000  PHI,EQ.RATIO=-1.000000

 THERMODYNAMIC PROPERTIES

 P, BAR           0.00250  0.00250  0.00250  0.00250  0.00250  0.00250  0.00250  0.00250
 T, K             5310.00  5320.00  5330.00  5340.00  5350.00  5360.00  5370.00  5380.00
 RHO, KG/CU M    5.7066-6 5.6958-6 5.6851-6 5.6744-6 5.6638-6 5.6532-6 5.6426-6 5.6321-6
 H, KJ/KG        319884.2 320098.7 320313.5 320528.5 320743.7 320959.1 321174.7 321390.6
 U, KJ/KG        276075.2 276207.0 276339.0 276471.2 276603.6 276736.2 276869.0 277002.1
 G, KJ/KG       -862520.8-864747.8-866975.1-869202.9-871431.1-873659.6-875888.6-878118.0
 S, KJ/(KG)(K)   222.6751 222.7155 222.7558 222.7961 222.8364 222.8766 222.9168 222.9570

 M, (1/n)           1.008    1.008    1.008    1.008    1.008    1.008    1.008    1.008
 (dLV/dLP)t      -1.00012 -1.00013 -1.00013 -1.00013 -1.00013 -1.00014 -1.00014 -1.00014
 (dLV/dLT)p        1.0033   1.0034   1.0035   1.0035   1.0036   1.0037   1.0038   1.0039
 Cp, KJ/(KG)(K)   21.4440  21.4649  21.4863  21.5083  21.5307  21.5538  21.5773  21.6015
 GAMMAs            1.6317   1.6309   1.6300   1.6292   1.6283   1.6274   1.6264   1.6255
 SON VEL,M/SEC     8454.8   8460.7   8466.4   8472.1   8477.7   8483.3   8488.8   8494.3

 TRANSPORT PROPERTIES (GASES ONLY)
   CONDUCTIVITY IN UNITS OF MILLIWATTS/(CM)(K)

 VISC,MILLIPOISE  0.56900  0.56987  0.57075  0.57162  0.57249  0.57336  0.57423  0.57510

  WITH EQUILIBRIUM REACTIONS

 Cp, KJ/(KG)(K)   21.4440  21.4649  21.4863  21.5083  21.5307  21.5538  21.5773  21.6015
 CONDUCTIVITY     17.7817  17.8124  17.8431  17.8740  17.9050  17.9361  17.9674  17.9987
 PRANDTL NUMBER    0.6862   0.6867   0.6873   0.6878   0.6884   0.6890   0.6896   0.6902

  WITH FROZEN REACTIONS

 Cp, KJ/(KG)(K)   20.6263  20.6264  20.6266  20.6267  20.6268  20.6269  20.6271  20.6272
 CONDUCTIVITY     17.6269  17.6547  17.6824  17.7102  17.7381  17.7659  17.7937  17.8216
 PRANDTL NUMBER    0.6658   0.6658   0.6658   0.6657   0.6657   0.6657   0.6657   0.6656

 MASS FRACTIONS

 *H               0.99975  0.99975  0.99974  0.99974  0.99973  0.99973  0.99972  0.99972
 *H+              0.00018  0.00019  0.00020  0.00020  0.00021  0.00021  0.00022  0.00023
 *H2              0.00006  0.00006  0.00006  0.00006  0.00006  0.00006  0.00006  0.00005

  * THERMODYNAMIC PROPERTIES FITTED TO 20000.K

 NOTE. WEIGHT FRACTION OF FUEL IN TOTAL FUELS AND OF OXIDANT IN TOTAL OXIDANTS









               THERMODYNAMIC EQUILIBRIUM PROPERTIES AT ASSIGNED

                           TEMPERATURE AND PRESSURE

 CASE =                

             REACTANT                    WT FRACTION      ENERGY      TEMP
                                          (SEE NOTE)     KJ/KG-MOL      K  
 FUEL        H2                           1.0000000         0.000      0.000
 OXIDANT     H2                           1.0000000         0.000      0.000

 O/F=    1.00000  %FUEL= 50.000000  R,EQ.RATIO= 0.000000  PHI,EQ.RATIO=-1.000000

 THERMODYNAMIC PROPERTIES

 P, BAR           0.00250  0.00250  0.00250  0.00250  0.00250  0.00250  0.00280  0.00280
 T, K             5390.00  5400.00  5410.00  5420.00  5430.00  5440.00  5300.00  5310.00
 RHO, KG/CU M    5.6216-6 5.6111-6 5.6007-6 5.5903-6 5.5800-6 5.5697-6 6.4036-6 6.3915-6
 H, KJ/KG        321606.8 321823.2 322039.8 322256.7 322473.9 322691.3 319654.2 319868.1
 U, KJ/KG        277135.4 277268.9 277402.7 277536.8 277671.1 277805.6 275928.6 276059.8
 G, KJ/KG       -880347.7-882577.9-884808.5-887039.4-889270.8-891502.6-855338.9-857556.0
 S, KJ/(KG)(K)   222.9971 223.0372 223.0773 223.1174 223.1574 223.1974 221.6968 221.7371

 M, (1/n)           1.008    1.008    1.008    1.008    1.008    1.008    1.008    1.008
 (dLV/dLP)t      -1.00014 -1.00015 -1.00015 -1.00015 -1.00016 -1.00016 -1.00012 -1.00012
 (dLV/dLT)p        1.0040   1.0041   1.0042   1.0043   1.0044   1.0045   1.0031   1.0032
 Cp, KJ/(KG)(K)   21.6262  21.6515  21.6774  21.7039  21.7310  21.7587  21.3847  21.4038
 GAMMAs            1.6245   1.6235   1.6225   1.6215   1.6204   1.6194   1.6342   1.6334
 SON VEL,M/SEC     8499.6   8505.0   8510.2   8515.4   8520.6   8525.7   8453.1   8459.1

 TRANSPORT PROPERTIES (GASES ONLY)
   CONDUCTIVITY IN UNITS OF MILLIWATTS/(CM)(K)

 VISC,MILLIPOISE  0.57597  0.57684  0.57771  0.57858  0.57945  0.58032  0.56819  0.56906

  WITH EQUILIBRIUM REACTIONS

 Cp, KJ/(KG)(K)   21.6262  21.6515  21.6774  21.7039  21.7310  21.7587  21.3847  21.4038
 CONDUCTIVITY     18.0302  18.0618  18.0936  18.1254  18.1574  18.1895  17.7487  17.7789
 PRANDTL NUMBER    0.6908   0.6915   0.6921   0.6928   0.6935   0.6942   0.6846   0.6851

  WITH FROZEN REACTIONS

 Cp, KJ/(KG)(K)   20.6274  20.6275  20.6277  20.6278  20.6280  20.6281  20.6260  20.6261
 CONDUCTIVITY     17.8494  17.8773  17.9052  17.9331  17.9610  17.9889  17.5995  17.6273
 PRANDTL NUMBER    0.6656   0.6656   0.6656   0.6655   0.6655   0.6655   0.6659   0.6659

 MASS FRACTIONS

 *H               0.99971  0.99971  0.99970  0.99969  0.99969  0.99968  0.99976  0.99976
 *H+              0.00023  0.00024  0.00025  0.00026  0.00026  0.00027  0.00017  0.00017
 *H2              0.00005  0.00005  0.00005  0.00005  0.00005  0.00005  0.00007  0.00007

  * THERMODYNAMIC PROPERTIES FITTED TO 20000.K

 NOTE. WEIGHT FRACTION OF FUEL IN TOTAL FUELS AND OF OXIDANT IN TOTAL OXIDANTS









               THERMODYNAMIC EQUILIBRIUM PROPERTIES AT ASSIGNED

                           TEMPERATURE AND PRESSURE

 CASE =                

             REACTANT                    WT FRACTION      ENERGY      TEMP
                                          (SEE NOTE)     KJ/KG-MOL      K  
 FUEL        H2                           1.0000000         0.000      0.000
 OXIDANT     H2                           1.0000000         0.000      0.000

 O/F=    1.00000  %FUEL= 50.000000  R,EQ.RATIO= 0.000000  PHI,EQ.RATIO=-1.000000

 THERMODYNAMIC PROPERTIES

 P, BAR           0.00280  0.00280  0.00280  0.00280  0.00280  0.00280  0.00280  0.00280
 T, K             5320.00  5330.00  5340.00  5350.00  5360.00  5370.00  5380.00  5390.00
 RHO, KG/CU M    6.3794-6 6.3674-6 6.3554-6 6.3435-6 6.3317-6 6.3198-6 6.3080-6 6.2963-6
 H, KJ/KG        320082.3 320296.6 320511.1 320725.9 320940.9 321156.0 321371.4 321587.1
 U, KJ/KG        276191.2 276322.7 276454.5 276586.4 276718.6 276851.0 276983.6 277116.4
 G, KJ/KG       -859773.6-861991.6-864210.0-866428.7-868647.9-870867.5-873087.5-875307.9
 S, KJ/(KG)(K)   221.7774 221.8177 221.8579 221.8981 221.9382 221.9783 222.0184 222.0584

 M, (1/n)           1.008    1.008    1.008    1.008    1.008    1.008    1.008    1.008
 (dLV/dLP)t      -1.00012 -1.00013 -1.00013 -1.00013 -1.00013 -1.00014 -1.00014 -1.00014
 (dLV/dLT)p        1.0032   1.0033   1.0034   1.0035   1.0036   1.0036   1.0037   1.0038
 Cp, KJ/(KG)(K)   21.4234  21.4435  21.4642  21.4853  21.5069  21.5291  21.5518  21.5751
 GAMMAs            1.6326   1.6318   1.6310   1.6301   1.6293   1.6284   1.6275   1.6266
 SON VEL,M/SEC     8465.1   8470.9   8476.7   8482.5   8488.2   8493.8   8499.4   8504.9

 TRANSPORT PROPERTIES (GASES ONLY)
   CONDUCTIVITY IN UNITS OF MILLIWATTS/(CM)(K)

 VISC,MILLIPOISE  0.56994  0.57081  0.57168  0.57256  0.57343  0.57430  0.57517  0.57605

  WITH EQUILIBRIUM REACTIONS

 Cp, KJ/(KG)(K)   21.4234  21.4435  21.4642  21.4853  21.5069  21.5291  21.5518  21.5751
 CONDUCTIVITY     17.8093  17.8398  17.8704  17.9012  17.9320  17.9630  17.9941  18.0253
 PRANDTL NUMBER    0.6856   0.6861   0.6866   0.6872   0.6877   0.6883   0.6889   0.6895

  WITH FROZEN REACTIONS

 Cp, KJ/(KG)(K)   20.6262  20.6263  20.6265  20.6266  20.6267  20.6268  20.6270  20.6271
 CONDUCTIVITY     17.6551  17.6829  17.7107  17.7386  17.7664  17.7943  17.8221  17.8500
 PRANDTL NUMBER    0.6658   0.6658   0.6658   0.6658   0.6657   0.6657   0.6657   0.6657

 MASS FRACTIONS

 *H               0.99975  0.99975  0.99974  0.99974  0.99973  0.99973  0.99972  0.99972
 *H+              0.00018  0.00018  0.00019  0.00020  0.00020  0.00021  0.00021  0.00022
 *H2              0.00007  0.00007  0.00007  0.00006  0.00006  0.00006  0.00006  0.00006

  * THERMODYNAMIC PROPERTIES FITTED TO 20000.K

 NOTE. WEIGHT FRACTION OF FUEL IN TOTAL FUELS AND OF OXIDANT IN TOTAL OXIDANTS









               THERMODYNAMIC EQUILIBRIUM PROPERTIES AT ASSIGNED

                           TEMPERATURE AND PRESSURE

 CASE =                

             REACTANT                    WT FRACTION      ENERGY      TEMP
                                          (SEE NOTE)     KJ/KG-MOL      K  
 FUEL        H2                           1.0000000         0.000      0.000
 OXIDANT     H2                           1.0000000         0.000      0.000

 O/F=    1.00000  %FUEL= 50.000000  R,EQ.RATIO= 0.000000  PHI,EQ.RATIO=-1.000000

 THERMODYNAMIC PROPERTIES

 P, BAR           0.00280  0.00280  0.00280  0.00280  0.00280  0.00310  0.00310  0.00310
 T, K             5400.00  5410.00  5420.00  5430.00  5440.00  5300.00  5310.00  5320.00
 RHO, KG/CU M    6.2846-6 6.2729-6 6.2613-6 6.2497-6 6.2382-6 7.0898-6 7.0764-6 7.0630-6
 H, KJ/KG        321802.9 322019.0 322235.4 322452.0 322668.9 319640.6 319854.2 320068.0
 U, KJ/KG        277249.4 277382.7 277516.2 277650.0 277784.0 275915.5 276046.4 276177.4
 G, KJ/KG       -877528.7-879749.8-881971.4-884193.4-886415.8-850888.4-853097.1-855306.3
 S, KJ/(KG)(K)   222.0984 222.1384 222.1784 222.2183 222.2582 220.8545 220.8948 220.9350

 M, (1/n)           1.008    1.008    1.008    1.008    1.008    1.008    1.008    1.008
 (dLV/dLP)t      -1.00014 -1.00015 -1.00015 -1.00015 -1.00016 -1.00012 -1.00012 -1.00012
 (dLV/dLT)p        1.0039   1.0040   1.0041   1.0042   1.0043   1.0030   1.0031   1.0031
 Cp, KJ/(KG)(K)   21.5989  21.6233  21.6482  21.6737  21.6999  21.3520  21.3701  21.3886
 GAMMAs            1.6256   1.6247   1.6237   1.6227   1.6217   1.6356   1.6348   1.6341
 SON VEL,M/SEC     8510.4   8515.8   8521.2   8526.4   8531.7   8456.7   8462.7   8468.8

 TRANSPORT PROPERTIES (GASES ONLY)
   CONDUCTIVITY IN UNITS OF MILLIWATTS/(CM)(K)

 VISC,MILLIPOISE  0.57692  0.57779  0.57866  0.57953  0.58040  0.56824  0.56911  0.56999

  WITH EQUILIBRIUM REACTIONS

 Cp, KJ/(KG)(K)   21.5989  21.6233  21.6482  21.6737  21.6999  21.3520  21.3701  21.3886
 CONDUCTIVITY     18.0566  18.0881  18.1197  18.1514  18.1832  17.7470  17.7771  17.8072
 PRANDTL NUMBER    0.6901   0.6907   0.6913   0.6920   0.6927   0.6837   0.6841   0.6846

  WITH FROZEN REACTIONS

 Cp, KJ/(KG)(K)   20.6272  20.6274  20.6275  20.6277  20.6278  20.6258  20.6259  20.6260
 CONDUCTIVITY     17.8779  17.9058  17.9338  17.9617  17.9896  17.5999  17.6277  17.6555
 PRANDTL NUMBER    0.6656   0.6656   0.6656   0.6656   0.6655   0.6659   0.6659   0.6659

 MASS FRACTIONS

 *H               0.99971  0.99971  0.99970  0.99970  0.99969  0.99976  0.99976  0.99975
 *H+              0.00023  0.00023  0.00024  0.00025  0.00026  0.00016  0.00017  0.00017
 *H2              0.00006  0.00006  0.00006  0.00006  0.00005  0.00008  0.00008  0.00008

  * THERMODYNAMIC PROPERTIES FITTED TO 20000.K

 NOTE. WEIGHT FRACTION OF FUEL IN TOTAL FUELS AND OF OXIDANT IN TOTAL OXIDANTS









               THERMODYNAMIC EQUILIBRIUM PROPERTIES AT ASSIGNED

                           TEMPERATURE AND PRESSURE

 CASE =                

             REACTANT                    WT FRACTION      ENERGY      TEMP
                                          (SEE NOTE)     KJ/KG-MOL      K  
 FUEL        H2                           1.0000000         0.000      0.000
 OXIDANT     H2                           1.0000000         0.000      0.000

 O/F=    1.00000  %FUEL= 50.000000  R,EQ.RATIO= 0.000000  PHI,EQ.RATIO=-1.000000

 THERMODYNAMIC PROPERTIES

 P, BAR           0.00310  0.00310  0.00310  0.00310  0.00310  0.00310  0.00310  0.00310
 T, K             5330.00  5340.00  5350.00  5360.00  5370.00  5380.00  5390.00  5400.00
 RHO, KG/CU M    7.0497-6 7.0365-6 7.0233-6 7.0101-6 6.9970-6 6.9840-6 6.9710-6 6.9580-6
 H, KJ/KG        320282.0 320496.2 320710.5 320925.1 321139.9 321354.9 321570.1 321785.5
 U, KJ/KG        276308.7 276440.1 276571.7 276703.4 276835.4 276967.6 277100.0 277232.6
 G, KJ/KG       -857515.8-859725.8-861936.1-864146.9-866358.1-868569.6-870781.6-872993.9
 S, KJ/(KG)(K)   220.9752 221.0153 221.0555 221.0955 221.1356 221.1756 221.2155 221.2555

 M, (1/n)           1.008    1.008    1.008    1.008    1.008    1.008    1.008    1.008
 (dLV/dLP)t      -1.00013 -1.00013 -1.00013 -1.00013 -1.00013 -1.00014 -1.00014 -1.00014
 (dLV/dLT)p        1.0032   1.0033   1.0034   1.0034   1.0035   1.0036   1.0037   1.0038
 Cp, KJ/(KG)(K)   21.4076  21.4271  21.4471  21.4675  21.4885  21.5100  21.5320  21.5545
 GAMMAs            1.6333   1.6325   1.6317   1.6309   1.6300   1.6292   1.6283   1.6274
 SON VEL,M/SEC     8474.7   8480.7   8486.5   8492.3   8498.1   8503.8   8509.4   8515.0

 TRANSPORT PROPERTIES (GASES ONLY)
   CONDUCTIVITY IN UNITS OF MILLIWATTS/(CM)(K)

 VISC,MILLIPOISE  0.57086  0.57174  0.57261  0.57349  0.57436  0.57524  0.57611  0.57698

  WITH EQUILIBRIUM REACTIONS

 Cp, KJ/(KG)(K)   21.4076  21.4271  21.4471  21.4675  21.4885  21.5100  21.5320  21.5545
 CONDUCTIVITY     17.8375  17.8679  17.8984  17.9290  17.9598  17.9906  18.0216  18.0527
 PRANDTL NUMBER    0.6851   0.6856   0.6861   0.6867   0.6872   0.6878   0.6883   0.6889

  WITH FROZEN REACTIONS

 Cp, KJ/(KG)(K)   20.6262  20.6263  20.6264  20.6265  20.6266  20.6267  20.6269  20.6270
 CONDUCTIVITY     17.6833  17.7111  17.7390  17.7669  17.7947  17.8226  17.8505  17.8784
 PRANDTL NUMBER    0.6659   0.6658   0.6658   0.6658   0.6658   0.6657   0.6657   0.6657

 MASS FRACTIONS

 *H               0.99975  0.99975  0.99974  0.99974  0.99973  0.99973  0.99972  0.99972
 *H+              0.00018  0.00018  0.00019  0.00019  0.00020  0.00020  0.00021  0.00022
 *H2              0.00007  0.00007  0.00007  0.00007  0.00007  0.00007  0.00007  0.00007

  * THERMODYNAMIC PROPERTIES FITTED TO 20000.K

 NOTE. WEIGHT FRACTION OF FUEL IN TOTAL FUELS AND OF OXIDANT IN TOTAL OXIDANTS









               THERMODYNAMIC EQUILIBRIUM PROPERTIES AT ASSIGNED

                           TEMPERATURE AND PRESSURE

 CASE =                

             REACTANT                    WT FRACTION      ENERGY      TEMP
                                          (SEE NOTE)     KJ/KG-MOL      K  
 FUEL        H2                           1.0000000         0.000      0.000
 OXIDANT     H2                           1.0000000         0.000      0.000

 O/F=    1.00000  %FUEL= 50.000000  R,EQ.RATIO= 0.000000  PHI,EQ.RATIO=-1.000000

 THERMODYNAMIC PROPERTIES

 P, BAR           0.00310  0.00310  0.00310  0.00310  0.00350  0.00350  0.00350  0.00350
 T, K             5410.00  5420.00  5430.00  5440.00  5300.00  5310.00  5320.00  5330.00
 RHO, KG/CU M    6.9451-6 6.9323-6 6.9194-6 6.9067-6 8.0047-6 7.9896-6 7.9745-6 7.9595-6
 H, KJ/KG        322001.2 322217.1 322433.2 322649.6 319624.9 319838.1 320051.6 320265.1
 U, KJ/KG        277365.5 277498.6 277631.8 277765.4 275900.5 276031.0 276161.6 276292.5
 G, KJ/KG       -875206.7-877419.8-879633.4-881847.3-845581.9-847780.6-849979.7-852179.2
 S, KJ/(KG)(K)   221.2954 221.3352 221.3751 221.4149 219.8503 219.8905 219.9307 219.9708

 M, (1/n)           1.008    1.008    1.008    1.008    1.008    1.008    1.008    1.008
 (dLV/dLP)t      -1.00014 -1.00015 -1.00015 -1.00015 -1.00012 -1.00012 -1.00012 -1.00012
 (dLV/dLT)p        1.0039   1.0040   1.0040   1.0041   1.0029   1.0030   1.0030   1.0031
 Cp, KJ/(KG)(K)   21.5776  21.6012  21.6254  21.6501  21.3159  21.3327  21.3500  21.3678
 GAMMAs            1.6265   1.6256   1.6246   1.6237   1.6371   1.6364   1.6357   1.6350
 SON VEL,M/SEC     8520.6   8526.0   8531.4   8536.8   8460.6   8466.8   8472.9   8479.0

 TRANSPORT PROPERTIES (GASES ONLY)
   CONDUCTIVITY IN UNITS OF MILLIWATTS/(CM)(K)

 VISC,MILLIPOISE  0.57786  0.57873  0.57960  0.58048  0.56829  0.56917  0.57005  0.57092

  WITH EQUILIBRIUM REACTIONS

 Cp, KJ/(KG)(K)   21.5776  21.6012  21.6254  21.6501  21.3159  21.3327  21.3500  21.3678
 CONDUCTIVITY     18.0839  18.1152  18.1466  18.1782  17.7460  17.7758  17.8056  17.8356
 PRANDTL NUMBER    0.6895   0.6901   0.6907   0.6913   0.6826   0.6831   0.6835   0.6840

  WITH FROZEN REACTIONS

 Cp, KJ/(KG)(K)   20.6271  20.6273  20.6274  20.6276  20.6256  20.6257  20.6258  20.6259
 CONDUCTIVITY     17.9064  17.9343  17.9623  17.9902  17.6003  17.6281  17.6559  17.6837
 PRANDTL NUMBER    0.6657   0.6656   0.6656   0.6656   0.6660   0.6660   0.6659   0.6659

 MASS FRACTIONS

 *H               0.99971  0.99971  0.99970  0.99970  0.99976  0.99976  0.99975  0.99975
 *H+              0.00022  0.00023  0.00024  0.00024  0.00015  0.00016  0.00016  0.00017
 *H2              0.00006  0.00006  0.00006  0.00006  0.00009  0.00009  0.00009  0.00008

  * THERMODYNAMIC PROPERTIES FITTED TO 20000.K

 NOTE. WEIGHT FRACTION OF FUEL IN TOTAL FUELS AND OF OXIDANT IN TOTAL OXIDANTS









               THERMODYNAMIC EQUILIBRIUM PROPERTIES AT ASSIGNED

                           TEMPERATURE AND PRESSURE

 CASE =                

             REACTANT                    WT FRACTION      ENERGY      TEMP
                                          (SEE NOTE)     KJ/KG-MOL      K  
 FUEL        H2                           1.0000000         0.000      0.000
 OXIDANT     H2                           1.0000000         0.000      0.000

 O/F=    1.00000  %FUEL= 50.000000  R,EQ.RATIO= 0.000000  PHI,EQ.RATIO=-1.000000

 THERMODYNAMIC PROPERTIES

 P, BAR           0.00350  0.00350  0.00350  0.00350  0.00350  0.00350  0.00350  0.00350
 T, K             5340.00  5350.00  5360.00  5370.00  5380.00  5390.00  5400.00  5410.00
 RHO, KG/CU M    7.9445-6 7.9296-6 7.9148-6 7.9000-6 7.8853-6 7.8706-6 7.8560-6 7.8414-6
 H, KJ/KG        320478.9 320692.9 320907.0 321121.3 321335.9 321550.6 321765.6 321980.7
 U, KJ/KG        276423.5 276554.7 276686.1 276817.6 276949.4 277081.3 277213.4 277345.8
 G, KJ/KG       -854379.1-856579.5-858780.2-860981.3-863182.8-865384.7-867587.0-869789.7
 S, KJ/(KG)(K)   220.0109 220.0509 220.0909 220.1308 220.1708 220.2106 220.2505 220.2903

 M, (1/n)           1.008    1.008    1.008    1.008    1.008    1.008    1.008    1.008
 (dLV/dLP)t      -1.00013 -1.00013 -1.00013 -1.00013 -1.00013 -1.00014 -1.00014 -1.00014
 (dLV/dLT)p        1.0032   1.0032   1.0033   1.0034   1.0035   1.0035   1.0036   1.0037
 Cp, KJ/(KG)(K)   21.3860  21.4046  21.4237  21.4433  21.4634  21.4840  21.5051  21.5267
 GAMMAs            1.6342   1.6335   1.6327   1.6319   1.6311   1.6303   1.6294   1.6286
 SON VEL,M/SEC     8485.1   8491.1   8497.0   8502.9   8508.7   8514.5   8520.2   8525.9

 TRANSPORT PROPERTIES (GASES ONLY)
   CONDUCTIVITY IN UNITS OF MILLIWATTS/(CM)(K)

 VISC,MILLIPOISE  0.57180  0.57268  0.57355  0.57443  0.57531  0.57618  0.57706  0.57793

  WITH EQUILIBRIUM REACTIONS

 Cp, KJ/(KG)(K)   21.3860  21.4046  21.4237  21.4433  21.4634  21.4840  21.5051  21.5267
 CONDUCTIVITY     17.8657  17.8960  17.9263  17.9568  17.9873  18.0180  18.0488  18.0797
 PRANDTL NUMBER    0.6845   0.6850   0.6855   0.6860   0.6865   0.6870   0.6876   0.6881

  WITH FROZEN REACTIONS

 Cp, KJ/(KG)(K)   20.6260  20.6261  20.6263  20.6264  20.6265  20.6266  20.6267  20.6269
 CONDUCTIVITY     17.7116  17.7395  17.7673  17.7952  17.8232  17.8511  17.8790  17.9070
 PRANDTL NUMBER    0.6659   0.6659   0.6658   0.6658   0.6658   0.6658   0.6657   0.6657

 MASS FRACTIONS

 *H               0.99975  0.99974  0.99974  0.99974  0.99973  0.99973  0.99972  0.99972
 *H+              0.00017  0.00018  0.00018  0.00019  0.00019  0.00020  0.00020  0.00021
 *H2              0.00008  0.00008  0.00008  0.00008  0.00008  0.00008  0.00007  0.00007

  * THERMODYNAMIC PROPERTIES FITTED TO 20000.K

 NOTE. WEIGHT FRACTION OF FUEL IN TOTAL FUELS AND OF OXIDANT IN TOTAL OXIDANTS









               THERMODYNAMIC EQUILIBRIUM PROPERTIES AT ASSIGNED

                           TEMPERATURE AND PRESSURE

 CASE =                

             REACTANT                    WT FRACTION      ENERGY      TEMP
                                          (SEE NOTE)     KJ/KG-MOL      K  
 FUEL        H2                           1.0000000         0.000      0.000
 OXIDANT     H2                           1.0000000         0.000      0.000

 O/F=    1.00000  %FUEL= 50.000000  R,EQ.RATIO= 0.000000  PHI,EQ.RATIO=-1.000000

 THERMODYNAMIC PROPERTIES

 P, BAR           0.00350  0.00350  0.00350  0.00390  0.00390  0.00390  0.00390  0.00390
 T, K             5420.00  5430.00  5440.00  5300.00  5310.00  5320.00  5330.00  5340.00
 RHO, KG/CU M    7.8269-6 7.8124-6 7.7980-6 8.9196-6 8.9028-6 8.8860-6 8.8693-6 8.8526-6
 H, KJ/KG        322196.1 322411.7 322627.5 319611.3 319824.2 320037.3 320250.6 320464.0
 U, KJ/KG        277478.4 277611.1 277744.1 275887.5 276017.7 276148.0 276278.6 276409.2
 G, KJ/KG       -871992.8-874196.3-876400.2-840850.4-843040.1-845230.3-847420.8-849611.8
 S, KJ/(KG)(K)   220.3301 220.3698 220.4095 218.9550 218.9952 219.0353 219.0753 219.1153

 M, (1/n)           1.008    1.008    1.008    1.008    1.008    1.008    1.008    1.008
 (dLV/dLP)t      -1.00014 -1.00015 -1.00015 -1.00012 -1.00012 -1.00012 -1.00013 -1.00013
 (dLV/dLT)p        1.0038   1.0039   1.0040   1.0028   1.0029   1.0029   1.0030   1.0031
 Cp, KJ/(KG)(K)   21.5488  21.5714  21.5946  21.2862  21.3020  21.3183  21.3349  21.3520
 GAMMAs            1.6277   1.6268   1.6259   1.6384   1.6377   1.6371   1.6364   1.6357
 SON VEL,M/SEC     8531.5   8537.1   8542.6   8463.8   8470.1   8476.4   8482.6   8488.8

 TRANSPORT PROPERTIES (GASES ONLY)
   CONDUCTIVITY IN UNITS OF MILLIWATTS/(CM)(K)

 VISC,MILLIPOISE  0.57881  0.57969  0.58056  0.56834  0.56922  0.57010  0.57098  0.57185

  WITH EQUILIBRIUM REACTIONS

 Cp, KJ/(KG)(K)   21.5488  21.5714  21.5946  21.2862  21.3020  21.3183  21.3349  21.3520
 CONDUCTIVITY     18.1107  18.1419  18.1732  17.7459  17.7754  17.8050  17.8348  17.8646
 PRANDTL NUMBER    0.6887   0.6893   0.6899   0.6817   0.6822   0.6826   0.6830   0.6835

  WITH FROZEN REACTIONS

 Cp, KJ/(KG)(K)   20.6270  20.6271  20.6273  20.6255  20.6256  20.6257  20.6258  20.6259
 CONDUCTIVITY     17.9349  17.9629  17.9909  17.6007  17.6285  17.6563  17.6841  17.7120
 PRANDTL NUMBER    0.6657   0.6657   0.6656   0.6660   0.6660   0.6660   0.6660   0.6659

 MASS FRACTIONS

 *H               0.99971  0.99971  0.99970  0.99976  0.99975  0.99975  0.99975  0.99975
 *H+              0.00022  0.00022  0.00023  0.00014  0.00015  0.00015  0.00016  0.00016
 *H2              0.00007  0.00007  0.00007  0.00010  0.00010  0.00010  0.00009  0.00009

  * THERMODYNAMIC PROPERTIES FITTED TO 20000.K

 NOTE. WEIGHT FRACTION OF FUEL IN TOTAL FUELS AND OF OXIDANT IN TOTAL OXIDANTS









               THERMODYNAMIC EQUILIBRIUM PROPERTIES AT ASSIGNED

                           TEMPERATURE AND PRESSURE

 CASE =                

             REACTANT                    WT FRACTION      ENERGY      TEMP
                                          (SEE NOTE)     KJ/KG-MOL      K  
 FUEL        H2                           1.0000000         0.000      0.000
 OXIDANT     H2                           1.0000000         0.000      0.000

 O/F=    1.00000  %FUEL= 50.000000  R,EQ.RATIO= 0.000000  PHI,EQ.RATIO=-1.000000

 THERMODYNAMIC PROPERTIES

 P, BAR           0.00390  0.00390  0.00390  0.00390  0.00390  0.00390  0.00390  0.00390
 T, K             5350.00  5360.00  5370.00  5380.00  5390.00  5400.00  5410.00  5420.00
 RHO, KG/CU M    8.8360-6 8.8195-6 8.8030-6 8.7866-6 8.7702-6 8.7539-6 8.7377-6 8.7215-6
 H, KJ/KG        320677.7 320891.4 321105.4 321319.6 321533.9 321748.4 321963.2 322178.1
 U, KJ/KG        276540.1 276671.1 276802.3 276933.7 277065.3 277197.0 277329.0 277461.1
 G, KJ/KG       -851803.1-853994.9-856187.0-858379.6-860572.5-862765.9-864959.6-867153.8
 S, KJ/(KG)(K)   219.1553 219.1952 219.2351 219.2749 219.3147 219.3545 219.3942 219.4339

 M, (1/n)           1.008    1.008    1.008    1.008    1.008    1.008    1.008    1.008
 (dLV/dLP)t      -1.00013 -1.00013 -1.00013 -1.00013 -1.00014 -1.00014 -1.00014 -1.00014
 (dLV/dLT)p        1.0031   1.0032   1.0033   1.0033   1.0034   1.0035   1.0036   1.0036
 Cp, KJ/(KG)(K)   21.3695  21.3875  21.4059  21.4248  21.4442  21.4640  21.4844  21.5052
 GAMMAs            1.6350   1.6342   1.6335   1.6327   1.6319   1.6311   1.6303   1.6295
 SON VEL,M/SEC     8494.9   8500.9   8506.9   8512.9   8518.8   8524.6   8530.4   8536.1

 TRANSPORT PROPERTIES (GASES ONLY)
   CONDUCTIVITY IN UNITS OF MILLIWATTS/(CM)(K)

 VISC,MILLIPOISE  0.57273  0.57361  0.57449  0.57537  0.57624  0.57712  0.57800  0.57888

  WITH EQUILIBRIUM REACTIONS

 Cp, KJ/(KG)(K)   21.3695  21.3875  21.4059  21.4248  21.4442  21.4640  21.4844  21.5052
 CONDUCTIVITY     17.8946  17.9247  17.9549  17.9852  18.0156  18.0462  18.0768  18.1076
 PRANDTL NUMBER    0.6839   0.6844   0.6849   0.6854   0.6859   0.6864   0.6870   0.6875

  WITH FROZEN REACTIONS

 Cp, KJ/(KG)(K)   20.6260  20.6261  20.6262  20.6263  20.6264  20.6265  20.6266  20.6268
 CONDUCTIVITY     17.7399  17.7678  17.7957  17.8236  17.8516  17.8795  17.9075  17.9355
 PRANDTL NUMBER    0.6659   0.6659   0.6659   0.6658   0.6658   0.6658   0.6658   0.6657

 MASS FRACTIONS

 *H               0.99974  0.99974  0.99974  0.99973  0.99973  0.99972  0.99972  0.99972
 *H+              0.00017  0.00017  0.00018  0.00018  0.00019  0.00019  0.00020  0.00020
 *H2              0.00009  0.00009  0.00009  0.00009  0.00008  0.00008  0.00008  0.00008

  * THERMODYNAMIC PROPERTIES FITTED TO 20000.K

 NOTE. WEIGHT FRACTION OF FUEL IN TOTAL FUELS AND OF OXIDANT IN TOTAL OXIDANTS









               THERMODYNAMIC EQUILIBRIUM PROPERTIES AT ASSIGNED

                           TEMPERATURE AND PRESSURE

 CASE =                

             REACTANT                    WT FRACTION      ENERGY      TEMP
                                          (SEE NOTE)     KJ/KG-MOL      K  
 FUEL        H2                           1.0000000         0.000      0.000
 OXIDANT     H2                           1.0000000         0.000      0.000

 O/F=    1.00000  %FUEL= 50.000000  R,EQ.RATIO= 0.000000  PHI,EQ.RATIO=-1.000000

 THERMODYNAMIC PROPERTIES

 P, BAR           0.00390  0.00390  0.00440  0.00440  0.00440  0.00440  0.00440  0.00440
 T, K             5430.00  5440.00  5300.00  5310.00  5320.00  5330.00  5340.00  5350.00
 RHO, KG/CU M    8.7054-6 8.6893-6 1.0063-5 1.0044-5 1.0025-5 1.0007-5 9.9877-6 9.9690-6
 H, KJ/KG        322393.3 322608.7 319596.5 319809.2 320021.9 320234.9 320448.0 320661.2
 U, KJ/KG        277593.5 277726.0 275873.3 276003.2 276133.3 276263.5 276393.8 276524.3
 G, KJ/KG       -869348.3-871543.2-835576.1-837755.9-839936.0-842116.6-844297.6-846479.0
 S, KJ/(KG)(K)   219.4736 219.5132 217.9571 217.9972 218.0372 218.0772 218.1171 218.1570

 M, (1/n)           1.008    1.008    1.008    1.008    1.008    1.008    1.008    1.008
 (dLV/dLP)t      -1.00014 -1.00015 -1.00012 -1.00012 -1.00013 -1.00013 -1.00013 -1.00013
 (dLV/dLT)p        1.0037   1.0038   1.0028   1.0028   1.0029   1.0029   1.0030   1.0030
 Cp, KJ/(KG)(K)   21.5265  21.5484  21.2559  21.2706  21.2857  21.3012  21.3171  21.3334
 GAMMAs            1.6286   1.6278   1.6397   1.6391   1.6385   1.6378   1.6372   1.6365
 SON VEL,M/SEC     8541.8   8547.4   8467.2   8473.6   8480.0   8486.3   8492.6   8498.8

 TRANSPORT PROPERTIES (GASES ONLY)
   CONDUCTIVITY IN UNITS OF MILLIWATTS/(CM)(K)

 VISC,MILLIPOISE  0.57976  0.58063  0.56839  0.56927  0.57015  0.57103  0.57191  0.57279

  WITH EQUILIBRIUM REACTIONS

 Cp, KJ/(KG)(K)   21.5265  21.5484  21.2559  21.2706  21.2857  21.3012  21.3171  21.3334
 CONDUCTIVITY     18.1385  18.1695  17.7468  17.7760  17.8054  17.8348  17.8644  17.8941
 PRANDTL NUMBER    0.6880   0.6886   0.6808   0.6812   0.6816   0.6820   0.6824   0.6829

  WITH FROZEN REACTIONS

 Cp, KJ/(KG)(K)   20.6269  20.6270  20.6253  20.6254  20.6255  20.6256  20.6257  20.6258
 CONDUCTIVITY     17.9635  17.9915  17.6010  17.6289  17.6567  17.6845  17.7124  17.7403
 PRANDTL NUMBER    0.6657   0.6657   0.6661   0.6660   0.6660   0.6660   0.6660   0.6660

 MASS FRACTIONS

 *H               0.99971  0.99971  0.99975  0.99975  0.99975  0.99975  0.99974  0.99974
 *H+              0.00021  0.00022  0.00013  0.00014  0.00014  0.00015  0.00015  0.00016
 *H2              0.00008  0.00008  0.00011  0.00011  0.00011  0.00011  0.00010  0.00010

  * THERMODYNAMIC PROPERTIES FITTED TO 20000.K

 NOTE. WEIGHT FRACTION OF FUEL IN TOTAL FUELS AND OF OXIDANT IN TOTAL OXIDANTS









               THERMODYNAMIC EQUILIBRIUM PROPERTIES AT ASSIGNED

                           TEMPERATURE AND PRESSURE

 CASE =                

             REACTANT                    WT FRACTION      ENERGY      TEMP
                                          (SEE NOTE)     KJ/KG-MOL      K  
 FUEL        H2                           1.0000000         0.000      0.000
 OXIDANT     H2                           1.0000000         0.000      0.000

 O/F=    1.00000  %FUEL= 50.000000  R,EQ.RATIO= 0.000000  PHI,EQ.RATIO=-1.000000

 THERMODYNAMIC PROPERTIES

 P, BAR           0.00440  0.00440  0.00440  0.00440  0.00440  0.00440  0.00440  0.00440
 T, K             5360.00  5370.00  5380.00  5390.00  5400.00  5410.00  5420.00  5430.00
 RHO, KG/CU M    9.9503-6 9.9317-6 9.9132-6 9.8948-6 9.8764-6 9.8581-6 9.8398-6 9.8216-6
 H, KJ/KG        320874.6 321088.2 321302.0 321515.9 321730.1 321944.4 322158.9 322373.6
 U, KJ/KG        276655.0 276785.8 276916.8 277048.0 277179.3 277310.9 277442.6 277574.5
 G, KJ/KG       -848660.7-850842.9-853025.5-855208.4-857391.8-859575.5-861759.7-863944.2
 S, KJ/(KG)(K)   218.1969 218.2367 218.2765 218.3162 218.3559 218.3955 218.4352 218.4747

 M, (1/n)           1.008    1.008    1.008    1.008    1.008    1.008    1.008    1.008
 (dLV/dLP)t      -1.00013 -1.00013 -1.00013 -1.00014 -1.00014 -1.00014 -1.00014 -1.00014
 (dLV/dLT)p        1.0031   1.0032   1.0032   1.0033   1.0034   1.0034   1.0035   1.0036
 Cp, KJ/(KG)(K)   21.3501  21.3673  21.3850  21.4030  21.4216  21.4405  21.4600  21.4799
 GAMMAs            1.6358   1.6351   1.6344   1.6336   1.6329   1.6321   1.6313   1.6305
 SON VEL,M/SEC     8505.0   8511.1   8517.2   8523.2   8529.1   8535.1   8540.9   8546.7

 TRANSPORT PROPERTIES (GASES ONLY)
   CONDUCTIVITY IN UNITS OF MILLIWATTS/(CM)(K)

 VISC,MILLIPOISE  0.57367  0.57455  0.57543  0.57631  0.57719  0.57807  0.57895  0.57983

  WITH EQUILIBRIUM REACTIONS

 Cp, KJ/(KG)(K)   21.3501  21.3673  21.3850  21.4030  21.4216  21.4405  21.4600  21.4799
 CONDUCTIVITY     17.9239  17.9538  17.9838  18.0139  18.0442  18.0746  18.1050  18.1356
 PRANDTL NUMBER    0.6833   0.6838   0.6843   0.6847   0.6852   0.6857   0.6862   0.6868

  WITH FROZEN REACTIONS

 Cp, KJ/(KG)(K)   20.6259  20.6260  20.6261  20.6262  20.6263  20.6264  20.6265  20.6266
 CONDUCTIVITY     17.7682  17.7962  17.8241  17.8521  17.8800  17.9080  17.9360  17.9640
 PRANDTL NUMBER    0.6659   0.6659   0.6659   0.6659   0.6658   0.6658   0.6658   0.6658

 MASS FRACTIONS

 *H               0.99974  0.99974  0.99973  0.99973  0.99973  0.99972  0.99972  0.99971
 *H+              0.00016  0.00017  0.00017  0.00018  0.00018  0.00019  0.00019  0.00020
 *H2              0.00010  0.00010  0.00010  0.00009  0.00009  0.00009  0.00009  0.00009

  * THERMODYNAMIC PROPERTIES FITTED TO 20000.K

 NOTE. WEIGHT FRACTION OF FUEL IN TOTAL FUELS AND OF OXIDANT IN TOTAL OXIDANTS









               THERMODYNAMIC EQUILIBRIUM PROPERTIES AT ASSIGNED

                           TEMPERATURE AND PRESSURE

 CASE =                

             REACTANT                    WT FRACTION      ENERGY      TEMP
                                          (SEE NOTE)     KJ/KG-MOL      K  
 FUEL        H2                           1.0000000         0.000      0.000
 OXIDANT     H2                           1.0000000         0.000      0.000

 O/F=    1.00000  %FUEL= 50.000000  R,EQ.RATIO= 0.000000  PHI,EQ.RATIO=-1.000000

 THERMODYNAMIC PROPERTIES

 P, BAR           0.00440
 T, K             5440.00
 RHO, KG/CU M    9.8035-6
 H, KJ/KG        322588.5
 U, KJ/KG        277706.6
 G, KJ/KG       -866129.2
 S, KJ/(KG)(K)   218.5143

 M, (1/n)           1.008
 (dLV/dLP)t      -1.00015
 (dLV/dLT)p        1.0037
 Cp, KJ/(KG)(K)   21.5004
 GAMMAs            1.6297
 SON VEL,M/SEC     8552.5

 TRANSPORT PROPERTIES (GASES ONLY)
   CONDUCTIVITY IN UNITS OF MILLIWATTS/(CM)(K)

 VISC,MILLIPOISE  0.58071

  WITH EQUILIBRIUM REACTIONS

 Cp, KJ/(KG)(K)   21.5004
 CONDUCTIVITY     18.1663
 PRANDTL NUMBER    0.6873

  WITH FROZEN REACTIONS

 Cp, KJ/(KG)(K)   20.6267
 CONDUCTIVITY     17.9921
 PRANDTL NUMBER    0.6657

 MASS FRACTIONS

 *H               0.99971
 *H+              0.00020
 *H2              0.00009

  * THERMODYNAMIC PROPERTIES FITTED TO 20000.K

 NOTE. WEIGHT FRACTION OF FUEL IN TOTAL FUELS AND OF OXIDANT IN TOTAL OXIDANTS



  
