
 *******************************************************************************

         NASA-GLENN CHEMICAL EQUILIBRIUM PROGRAM CEA2, MAY 21, 2004
                   BY  BONNIE MCBRIDE AND SANFORD GORDON
      REFS: NASA RP-1311, PART I, 1994 AND NASA RP-1311, PART II, 1996

 *******************************************************************************



  prob tp ions
  p,bar= 60.0,67.0,74.0,82.5,91.0,100.0,110.0,120.0,132.0,148.0,165.0,180.0,200.0
 ,225.0,250.0
  t,k= 5100,5110,5120,5130,5140,5150,5160,5170,5180,5190,5200,5210,5220,5230,5240
  
  reac
  na H2                wt%=100.0000
  
  output short
  output siunits
  output transport
  
 end





               THERMODYNAMIC EQUILIBRIUM PROPERTIES AT ASSIGNED

                           TEMPERATURE AND PRESSURE

 CASE =                

             REACTANT                    WT FRACTION      ENERGY      TEMP
                                          (SEE NOTE)     KJ/KG-MOL      K  
             H2                           1.0000000         0.000      0.000

 O/F=    0.00000  %FUEL=100.000000  R,EQ.RATIO= 0.000000  PHI,EQ.RATIO= 0.000000

 THERMODYNAMIC PROPERTIES

 P, BAR            60.000   60.000   60.000   60.000   60.000   60.000   60.000   60.000
 T, K             5100.00  5110.00  5120.00  5130.00  5140.00  5150.00  5160.00  5170.00
 RHO, KG/CU M    2.0076-1 1.9984-1 1.9893-1 1.9803-1 1.9713-1 1.9624-1 1.9535-1 1.9447-1
 H, KJ/KG        181782.5 182845.4 183909.1 184973.5 186038.7 187104.6 188170.9 189237.8
 U, KJ/KG        151896.2 152822.0 153748.2 154674.8 155601.8 156529.1 157456.6 158384.2
 G, KJ/KG       -413562.3-414728.8-415899.3-417071.8-418246.4-419423.1-420601.9-421782.7
 S, KJ/(KG)(K)   116.7343 116.9421 117.1501 117.3578 117.5652 117.7724 117.9792 118.1858

 M, (1/n)           1.419    1.415    1.411    1.408    1.404    1.400    1.397    1.393
 (dLV/dLP)t      -1.12186 -1.12215 -1.12243 -1.12269 -1.12293 -1.12317 -1.12339 -1.12359
 (dLV/dLT)p        2.3355   2.3361   2.3365   2.3368   2.3369   2.3368   2.3366   2.3363
 Cp, KJ/(KG)(K)  106.2159 106.3162 106.4051 106.4843 106.5536 106.6131 106.6627 106.7025
 GAMMAs            1.2182   1.2187   1.2192   1.2198   1.2203   1.2209   1.2215   1.2220
 SON VEL,M/SEC     6033.8   6048.9   6064.1   6079.3   6094.5   6109.8   6125.1   6140.3

 TRANSPORT PROPERTIES (GASES ONLY)
   CONDUCTIVITY IN UNITS OF MILLIWATTS/(CM)(K)

 VISC,MILLIPOISE  0.79270  0.79329  0.79385  0.79440  0.79493  0.79544  0.79594  0.79641

  WITH EQUILIBRIUM REACTIONS

 Cp, KJ/(KG)(K)  106.2153 106.3162 106.4051 106.4843 106.5536 106.6131 106.6627 106.7025
 CONDUCTIVITY    145.1549 145.1984 145.2270 145.2413 145.2412 145.2270 145.1985 145.1559
 PRANDTL NUMBER    0.5801   0.5809   0.5816   0.5824   0.5832   0.5839   0.5847   0.5854

  WITH FROZEN REACTIONS

 Cp, KJ/(KG)(K)   20.4421  20.4474  20.4527  20.4580  20.4632  20.4683  20.4734  20.4784
 CONDUCTIVITY     22.3070  22.3255  22.3440  22.3620  22.3795  22.3965  22.4130  22.4291
 PRANDTL NUMBER    0.7264   0.7266   0.7267   0.7268   0.7269   0.7270   0.7271   0.7271

 MOLE FRACTIONS

 *H               0.59233  0.59601  0.59968  0.60332  0.60695  0.61057  0.61417  0.61775
 *H2              0.40766  0.40399  0.40032  0.39668  0.39304  0.38943  0.38583  0.38225

  * THERMODYNAMIC PROPERTIES FITTED TO 20000.K

 NOTE. WEIGHT FRACTION OF FUEL IN TOTAL FUELS AND OF OXIDANT IN TOTAL OXIDANTS









               THERMODYNAMIC EQUILIBRIUM PROPERTIES AT ASSIGNED

                           TEMPERATURE AND PRESSURE

 CASE =                

             REACTANT                    WT FRACTION      ENERGY      TEMP
                                          (SEE NOTE)     KJ/KG-MOL      K  
             H2                           1.0000000         0.000      0.000

 O/F=    0.00000  %FUEL=100.000000  R,EQ.RATIO= 0.000000  PHI,EQ.RATIO= 0.000000

 THERMODYNAMIC PROPERTIES

 P, BAR            60.000   60.000   60.000   60.000   60.000   60.000   60.000   67.000
 T, K             5180.00  5190.00  5200.00  5210.00  5220.00  5230.00  5240.00  5100.00
 RHO, KG/CU M    1.9359-1 1.9272-1 1.9186-1 1.9100-1 1.9015-1 1.8930-1 1.8846-1 2.2720-1
 H, KJ/KG        190305.0 191372.4 192440.0 193507.6 194575.2 195642.6 196709.8 177436.6
 U, KJ/KG        159311.7 160239.3 161166.6 162093.7 163020.4 163946.7 164872.5 147946.8
 G, KJ/KG       -422965.6-424150.5-425337.5-426526.6-427717.7-428910.9-430106.1-410284.5
 S, KJ/(KG)(K)   118.3920 118.5979 118.8034 119.0085 119.2132 119.4175 119.6214 115.2394

 M, (1/n)           1.390    1.386    1.383    1.379    1.375    1.372    1.368    1.438
 (dLV/dLP)t      -1.12378 -1.12396 -1.12412 -1.12427 -1.12441 -1.12453 -1.12464 -1.12019
 (dLV/dLT)p        2.3358   2.3351   2.3343   2.3334   2.3323   2.3311   2.3297   2.3173
 Cp, KJ/(KG)(K)  106.7323 106.7522 106.7622 106.7623 106.7525 106.7328 106.7032 103.9129
 GAMMAs            1.2226   1.2232   1.2237   1.2243   1.2249   1.2255   1.2261   1.2174
 SON VEL,M/SEC     6155.7   6171.0   6186.3   6201.7   6217.1   6232.5   6247.9   5991.8

 TRANSPORT PROPERTIES (GASES ONLY)
   CONDUCTIVITY IN UNITS OF MILLIWATTS/(CM)(K)

 VISC,MILLIPOISE  0.79687  0.79731  0.79773  0.79814  0.79853  0.79890  0.79925  0.79614

  WITH EQUILIBRIUM REACTIONS

 Cp, KJ/(KG)(K)  106.7323 106.7522 106.7622 106.7623 106.7525 106.7328 106.7032 103.9129
 CONDUCTIVITY    145.0992 145.0285 144.9438 144.8453 144.7329 144.6068 144.4671 143.5884
 PRANDTL NUMBER    0.5862   0.5869   0.5876   0.5883   0.5890   0.5897   0.5903   0.5762

  WITH FROZEN REACTIONS

 Cp, KJ/(KG)(K)   20.4833  20.4881  20.4929  20.4976  20.5022  20.5068  20.5113  20.4361
 CONDUCTIVITY     22.4446  22.4597  22.4743  22.4885  22.5022  22.5155  22.5283  22.4239
 PRANDTL NUMBER    0.7272   0.7273   0.7274   0.7275   0.7276   0.7276   0.7277   0.7256

 MOLE FRACTIONS

 *H               0.62131  0.62486  0.62839  0.63190  0.63539  0.63886  0.64232  0.57340
 *H2              0.37869  0.37514  0.37161  0.36810  0.36461  0.36113  0.35768  0.42659

  * THERMODYNAMIC PROPERTIES FITTED TO 20000.K

 NOTE. WEIGHT FRACTION OF FUEL IN TOTAL FUELS AND OF OXIDANT IN TOTAL OXIDANTS









               THERMODYNAMIC EQUILIBRIUM PROPERTIES AT ASSIGNED

                           TEMPERATURE AND PRESSURE

 CASE =                

             REACTANT                    WT FRACTION      ENERGY      TEMP
                                          (SEE NOTE)     KJ/KG-MOL      K  
             H2                           1.0000000         0.000      0.000

 O/F=    0.00000  %FUEL=100.000000  R,EQ.RATIO= 0.000000  PHI,EQ.RATIO= 0.000000

 THERMODYNAMIC PROPERTIES

 P, BAR            67.000   67.000   67.000   67.000   67.000   67.000   67.000   67.000
 T, K             5110.00  5120.00  5130.00  5140.00  5150.00  5160.00  5170.00  5180.00
 RHO, KG/CU M    2.2617-1 2.2514-1 2.2413-1 2.2312-1 2.2211-1 2.2111-1 2.2012-1 2.1914-1
 H, KJ/KG        178476.4 179517.6 180560.0 181603.5 182648.2 183693.8 184740.3 185787.6
 U, KJ/KG        148852.4 149758.9 150666.3 151574.5 152483.3 153392.7 154302.6 155213.0
 G, KJ/KG       -411437.9-412593.4-413750.9-414910.4-416071.9-417235.5-418401.1-419568.7
 S, KJ/(KG)(K)   115.4431 115.6467 115.8501 116.0533 116.2563 116.4592 116.6618 116.8642

 M, (1/n)           1.434    1.431    1.427    1.423    1.420    1.416    1.412    1.409
 (dLV/dLP)t      -1.12054 -1.12088 -1.12120 -1.12151 -1.12181 -1.12209 -1.12237 -1.12262
 (dLV/dLT)p        2.3185   2.3196   2.3206   2.3214   2.3221   2.3226   2.3230   2.3233
 Cp, KJ/(KG)(K)  104.0511 104.1805 104.3008 104.4120 104.5142 104.6073 104.6911 104.7658
 GAMMAs            1.2180   1.2185   1.2190   1.2195   1.2201   1.2206   1.2212   1.2217
 SON VEL,M/SEC     6006.7   6021.7   6036.6   6051.6   6066.6   6081.6   6096.7   6111.7

 TRANSPORT PROPERTIES (GASES ONLY)
   CONDUCTIVITY IN UNITS OF MILLIWATTS/(CM)(K)

 VISC,MILLIPOISE  0.79683  0.79750  0.79815  0.79879  0.79941  0.80001  0.80059  0.80115

  WITH EQUILIBRIUM REACTIONS

 Cp, KJ/(KG)(K)  104.0511 104.1805 104.3008 104.4120 104.5142 104.6073 104.6911 104.7658
 CONDUCTIVITY    143.6988 143.7955 143.8785 143.9479 144.0036 144.0456 144.0740 144.0888
 PRANDTL NUMBER    0.5770   0.5778   0.5786   0.5794   0.5802   0.5810   0.5817   0.5825

  WITH FROZEN REACTIONS

 Cp, KJ/(KG)(K)   20.4417  20.4471  20.4525  20.4578  20.4630  20.4682  20.4733  20.4783
 CONDUCTIVITY     22.4455  22.4667  22.4873  22.5073  22.5269  22.5459  22.5644  22.5825
 PRANDTL NUMBER    0.7257   0.7258   0.7259   0.7261   0.7262   0.7263   0.7264   0.7265

 MOLE FRACTIONS

 *H               0.57708  0.58075  0.58440  0.58804  0.59166  0.59527  0.59886  0.60244
 *H2              0.42292  0.41925  0.41560  0.41196  0.40834  0.40473  0.40114  0.39756

  * THERMODYNAMIC PROPERTIES FITTED TO 20000.K

 NOTE. WEIGHT FRACTION OF FUEL IN TOTAL FUELS AND OF OXIDANT IN TOTAL OXIDANTS









               THERMODYNAMIC EQUILIBRIUM PROPERTIES AT ASSIGNED

                           TEMPERATURE AND PRESSURE

 CASE =                

             REACTANT                    WT FRACTION      ENERGY      TEMP
                                          (SEE NOTE)     KJ/KG-MOL      K  
             H2                           1.0000000         0.000      0.000

 O/F=    0.00000  %FUEL=100.000000  R,EQ.RATIO= 0.000000  PHI,EQ.RATIO= 0.000000

 THERMODYNAMIC PROPERTIES

 P, BAR            67.000   67.000   67.000   67.000   67.000   67.000   74.000   74.000
 T, K             5190.00  5200.00  5210.00  5220.00  5230.00  5240.00  5100.00  5110.00
 RHO, KG/CU M    2.1816-1 2.1718-1 2.1622-1 2.1525-1 2.1430-1 2.1335-1 2.5393-1 2.5279-1
 H, KJ/KG        186835.6 187884.2 188933.3 189982.8 191032.7 192082.8 173626.6 174644.7
 U, KJ/KG        156123.7 157034.6 157945.7 158856.9 159768.1 160679.2 144484.5 145371.0
 G, KJ/KG       -420738.4-421910.1-423083.7-424259.5-425437.2-426616.9-407371.4-408511.6
 S, KJ/(KG)(K)   117.0663 117.2681 117.4697 117.6709 117.8719 118.0725 113.9212 114.1206

 M, (1/n)           1.405    1.401    1.398    1.394    1.391    1.387    1.455    1.451
 (dLV/dLP)t      -1.12287 -1.12310 -1.12332 -1.12353 -1.12372 -1.12390 -1.11844 -1.11883
 (dLV/dLT)p        2.3234   2.3234   2.3232   2.3229   2.3224   2.3218   2.2980   2.2998
 Cp, KJ/(KG)(K)  104.8312 104.8874 104.9343 104.9718 105.0001 105.0190 101.7176 101.8868
 GAMMAs            1.2223   1.2228   1.2234   1.2239   1.2245   1.2251   1.2169   1.2174
 SON VEL,M/SEC     6126.8   6141.9   6157.1   6172.2   6187.4   6202.6   5955.0   5969.7

 TRANSPORT PROPERTIES (GASES ONLY)
   CONDUCTIVITY IN UNITS OF MILLIWATTS/(CM)(K)

 VISC,MILLIPOISE  0.80170  0.80223  0.80274  0.80323  0.80370  0.80416  0.79880  0.79958

  WITH EQUILIBRIUM REACTIONS

 Cp, KJ/(KG)(K)  104.8312 104.8874 104.9343 104.9718 105.0001 105.0190 101.7176 101.8868
 CONDUCTIVITY    144.0901 144.0778 144.0520 144.0128 143.9601 143.8942 141.9132 142.0795
 PRANDTL NUMBER    0.5833   0.5840   0.5848   0.5855   0.5862   0.5869   0.5725   0.5734

  WITH FROZEN REACTIONS

 Cp, KJ/(KG)(K)   20.4833  20.4882  20.4930  20.4977  20.5024  20.5071  20.4310  20.4366
 CONDUCTIVITY     22.6000  22.6170  22.6336  22.6497  22.6653  22.6805  22.5200  22.5440
 PRANDTL NUMBER    0.7266   0.7267   0.7268   0.7269   0.7270   0.7271   0.7247   0.7248

 MOLE FRACTIONS

 *H               0.60600  0.60955  0.61308  0.61659  0.62009  0.62357  0.55639  0.56006
 *H2              0.39400  0.39045  0.38692  0.38341  0.37991  0.37643  0.44361  0.43994

  * THERMODYNAMIC PROPERTIES FITTED TO 20000.K

 NOTE. WEIGHT FRACTION OF FUEL IN TOTAL FUELS AND OF OXIDANT IN TOTAL OXIDANTS









               THERMODYNAMIC EQUILIBRIUM PROPERTIES AT ASSIGNED

                           TEMPERATURE AND PRESSURE

 CASE =                

             REACTANT                    WT FRACTION      ENERGY      TEMP
                                          (SEE NOTE)     KJ/KG-MOL      K  
             H2                           1.0000000         0.000      0.000

 O/F=    0.00000  %FUEL=100.000000  R,EQ.RATIO= 0.000000  PHI,EQ.RATIO= 0.000000

 THERMODYNAMIC PROPERTIES

 P, BAR            74.000   74.000   74.000   74.000   74.000   74.000   74.000   74.000
 T, K             5120.00  5130.00  5140.00  5150.00  5160.00  5170.00  5180.00  5190.00
 RHO, KG/CU M    2.5165-1 2.5052-1 2.4940-1 2.4829-1 2.4718-1 2.4608-1 2.4498-1 2.4389-1
 H, KJ/KG        175664.4 176685.6 177708.3 178732.5 179757.9 180784.6 181812.4 182841.3
 U, KJ/KG        146258.7 147147.5 148037.5 148928.4 149820.2 150712.8 151606.2 152500.3
 G, KJ/KG       -409653.8-410798.0-411944.2-413092.4-414242.5-415394.7-416548.8-417705.0
 S, KJ/(KG)(K)   114.3200 114.5192 114.7184 114.9174 115.1164 115.3151 115.5138 115.7122

 M, (1/n)           1.448    1.444    1.440    1.437    1.433    1.429    1.426    1.422
 (dLV/dLP)t      -1.11922 -1.11959 -1.11996 -1.12031 -1.12065 -1.12097 -1.12129 -1.12159
 (dLV/dLT)p        2.3015   2.3031   2.3045   2.3058   2.3070   2.3080   2.3088   2.3096
 Cp, KJ/(KG)(K)  102.0478 102.2005 102.3448 102.4808 102.6083 102.7273 102.8377 102.9396
 GAMMAs            1.2179   1.2184   1.2189   1.2194   1.2199   1.2205   1.2210   1.2215
 SON VEL,M/SEC     5984.3   5999.1   6013.8   6028.6   6043.3   6058.2   6073.0   6087.9

 TRANSPORT PROPERTIES (GASES ONLY)
   CONDUCTIVITY IN UNITS OF MILLIWATTS/(CM)(K)

 VISC,MILLIPOISE  0.80035  0.80109  0.80182  0.80253  0.80323  0.80390  0.80456  0.80520

  WITH EQUILIBRIUM REACTIONS

 Cp, KJ/(KG)(K)  102.0478 102.2005 102.3448 102.4808 102.6083 102.7273 102.8377 102.9396
 CONDUCTIVITY    142.2327 142.3730 142.5003 142.6144 142.7156 142.8036 142.8786 142.9406
 PRANDTL NUMBER    0.5742   0.5751   0.5759   0.5767   0.5775   0.5783   0.5791   0.5799

  WITH FROZEN REACTIONS

 Cp, KJ/(KG)(K)   20.4421  20.4476  20.4530  20.4583  20.4636  20.4688  20.4739  20.4790
 CONDUCTIVITY     22.5675  22.5905  22.6129  22.6348  22.6562  22.6770  22.6973  22.7171
 PRANDTL NUMBER    0.7250   0.7251   0.7252   0.7254   0.7255   0.7256   0.7257   0.7259

 MOLE FRACTIONS

 *H               0.56371  0.56736  0.57099  0.57461  0.57822  0.58181  0.58539  0.58896
 *H2              0.43629  0.43264  0.42901  0.42539  0.42178  0.41819  0.41460  0.41104

  * THERMODYNAMIC PROPERTIES FITTED TO 20000.K

 NOTE. WEIGHT FRACTION OF FUEL IN TOTAL FUELS AND OF OXIDANT IN TOTAL OXIDANTS









               THERMODYNAMIC EQUILIBRIUM PROPERTIES AT ASSIGNED

                           TEMPERATURE AND PRESSURE

 CASE =                

             REACTANT                    WT FRACTION      ENERGY      TEMP
                                          (SEE NOTE)     KJ/KG-MOL      K  
             H2                           1.0000000         0.000      0.000

 O/F=    0.00000  %FUEL=100.000000  R,EQ.RATIO= 0.000000  PHI,EQ.RATIO= 0.000000

 THERMODYNAMIC PROPERTIES

 P, BAR            74.000   74.000   74.000   74.000   74.000   82.500   82.500   82.500
 T, K             5200.00  5210.00  5220.00  5230.00  5240.00  5100.00  5110.00  5120.00
 RHO, KG/CU M    2.4281-1 2.4174-1 2.4067-1 2.3961-1 2.3855-1 2.8673-1 2.8546-1 2.8419-1
 H, KJ/KG        183871.2 184902.0 185933.5 186965.8 187998.7 169576.5 170569.6 171564.7
 U, KJ/KG        153394.9 154290.1 155185.7 156081.7 156977.9 140803.9 141668.5 142534.6
 G, KJ/KG       -418863.1-420023.2-421185.2-422349.3-423515.3-404222.9-405348.9-406476.9
 S, KJ/(KG)(K)   115.9104 116.1085 116.3063 116.5038 116.7011 112.5097 112.7042 112.8988

 M, (1/n)           1.419    1.415    1.412    1.408    1.404    1.474    1.470    1.466
 (dLV/dLP)t      -1.12188 -1.12215 -1.12242 -1.12267 -1.12291 -1.11627 -1.11671 -1.11715
 (dLV/dLT)p        2.3102   2.3107   2.3110   2.3112   2.3112   2.2742   2.2766   2.2789
 Cp, KJ/(KG)(K)  103.0328 103.1174 103.1932 103.2603 103.3187  99.2125  99.4106  99.6013
 GAMMAs            1.2221   1.2226   1.2231   1.2237   1.2242   1.2163   1.2168   1.2173
 SON VEL,M/SEC     6102.8   6117.7   6132.6   6147.6   6162.6   5915.8   5930.2   5944.6

 TRANSPORT PROPERTIES (GASES ONLY)
   CONDUCTIVITY IN UNITS OF MILLIWATTS/(CM)(K)

 VISC,MILLIPOISE  0.80582  0.80643  0.80701  0.80758  0.80814  0.80124  0.80212  0.80299

  WITH EQUILIBRIUM REACTIONS

 Cp, KJ/(KG)(K)  103.0328 103.1173 103.1932 103.2603 103.3187  99.2125  99.4106  99.6013
 CONDUCTIVITY    142.9895 143.0253 143.0482 143.0581 143.0550 139.8226 140.0447 140.2546
 PRANDTL NUMBER    0.5806   0.5814   0.5822   0.5829   0.5837   0.5685   0.5694   0.5702

  WITH FROZEN REACTIONS

 Cp, KJ/(KG)(K)   20.4840  20.4889  20.4938  20.4986  20.5033  20.4255  20.4312  20.4368
 CONDUCTIVITY     22.7364  22.7553  22.7736  22.7914  22.8088  22.6145  22.6412  22.6673
 PRANDTL NUMBER    0.7260   0.7261   0.7262   0.7263   0.7265   0.7237   0.7238   0.7240

 MOLE FRACTIONS

 *H               0.59251  0.59605  0.59958  0.60309  0.60658  0.53785  0.54149  0.54513
 *H2              0.40748  0.40394  0.40042  0.39691  0.39342  0.46215  0.45851  0.45487

  * THERMODYNAMIC PROPERTIES FITTED TO 20000.K

 NOTE. WEIGHT FRACTION OF FUEL IN TOTAL FUELS AND OF OXIDANT IN TOTAL OXIDANTS









               THERMODYNAMIC EQUILIBRIUM PROPERTIES AT ASSIGNED

                           TEMPERATURE AND PRESSURE

 CASE =                

             REACTANT                    WT FRACTION      ENERGY      TEMP
                                          (SEE NOTE)     KJ/KG-MOL      K  
             H2                           1.0000000         0.000      0.000

 O/F=    0.00000  %FUEL=100.000000  R,EQ.RATIO= 0.000000  PHI,EQ.RATIO= 0.000000

 THERMODYNAMIC PROPERTIES

 P, BAR            82.500   82.500   82.500   82.500   82.500   82.500   82.500   82.500
 T, K             5130.00  5140.00  5150.00  5160.00  5170.00  5180.00  5190.00  5200.00
 RHO, KG/CU M    2.8293-1 2.8167-1 2.8042-1 2.7918-1 2.7795-1 2.7672-1 2.7550-1 2.7429-1
 H, KJ/KG        172561.6 173560.4 174560.8 175562.9 176566.6 177571.7 178578.2 179586.1
 U, KJ/KG        143402.1 144270.9 145141.0 146012.4 146884.9 147758.4 148633.0 149508.4
 G, KJ/KG       -407606.9-408738.8-409872.7-411008.5-412146.2-413285.9-414427.5-415571.1
 S, KJ/(KG)(K)   113.0933 113.2878 113.4822 113.6766 113.8709 114.0652 114.2593 114.4533

 M, (1/n)           1.463    1.459    1.455    1.452    1.448    1.445    1.441    1.437
 (dLV/dLP)t      -1.11757 -1.11799 -1.11839 -1.11878 -1.11916 -1.11953 -1.11989 -1.12024
 (dLV/dLT)p        2.2811   2.2831   2.2850   2.2868   2.2884   2.2899   2.2913   2.2925
 Cp, KJ/(KG)(K)   99.7845  99.9602 100.1281 100.2884 100.4409 100.5856 100.7224 100.8513
 GAMMAs            1.2178   1.2183   1.2188   1.2193   1.2198   1.2203   1.2208   1.2213
 SON VEL,M/SEC     5959.0   5973.5   5988.0   6002.5   6017.0   6031.6   6046.2   6060.8

 TRANSPORT PROPERTIES (GASES ONLY)
   CONDUCTIVITY IN UNITS OF MILLIWATTS/(CM)(K)

 VISC,MILLIPOISE  0.80384  0.80467  0.80548  0.80627  0.80705  0.80781  0.80855  0.80927

  WITH EQUILIBRIUM REACTIONS

 Cp, KJ/(KG)(K)   99.7845  99.9602 100.1281 100.2884 100.4409 100.5856 100.7224 100.8513
 CONDUCTIVITY    140.4522 140.6375 140.8106 140.9712 141.1196 141.2555 141.3790 141.4901
 PRANDTL NUMBER    0.5711   0.5719   0.5728   0.5736   0.5744   0.5752   0.5760   0.5768

  WITH FROZEN REACTIONS

 Cp, KJ/(KG)(K)   20.4424  20.4479  20.4534  20.4587  20.4640  20.4693  20.4744  20.4795
 CONDUCTIVITY     22.6928  22.7178  22.7423  22.7663  22.7897  22.8125  22.8349  22.8567
 PRANDTL NUMBER    0.7241   0.7243   0.7244   0.7246   0.7247   0.7248   0.7250   0.7251

 MOLE FRACTIONS

 *H               0.54876  0.55238  0.55599  0.55959  0.56317  0.56675  0.57031  0.57386
 *H2              0.45124  0.44762  0.44401  0.44041  0.43683  0.43325  0.42969  0.42614

  * THERMODYNAMIC PROPERTIES FITTED TO 20000.K

 NOTE. WEIGHT FRACTION OF FUEL IN TOTAL FUELS AND OF OXIDANT IN TOTAL OXIDANTS









               THERMODYNAMIC EQUILIBRIUM PROPERTIES AT ASSIGNED

                           TEMPERATURE AND PRESSURE

 CASE =                

             REACTANT                    WT FRACTION      ENERGY      TEMP
                                          (SEE NOTE)     KJ/KG-MOL      K  
             H2                           1.0000000         0.000      0.000

 O/F=    0.00000  %FUEL=100.000000  R,EQ.RATIO= 0.000000  PHI,EQ.RATIO= 0.000000

 THERMODYNAMIC PROPERTIES

 P, BAR            82.500   82.500   82.500   82.500   91.000   91.000   91.000   91.000
 T, K             5210.00  5220.00  5230.00  5240.00  5100.00  5110.00  5120.00  5130.00
 RHO, KG/CU M    2.7308-1 2.7189-1 2.7069-1 2.6951-1 3.1987-1 3.1846-1 3.1706-1 3.1566-1
 H, KJ/KG        180595.2 181605.5 182616.9 183629.3 166034.1 167004.0 167976.1 168950.3
 U, KJ/KG        150384.8 151261.9 152139.7 153018.1 137584.7 138428.9 139274.7 140122.2
 G, KJ/KG       -416716.6-417864.0-419013.4-420164.7-401417.3-402530.9-403646.4-404763.8
 S, KJ/(KG)(K)   114.6472 114.8409 115.0345 115.2279 111.2650 111.4550 111.6450 111.8351

 M, (1/n)           1.434    1.430    1.427    1.423    1.491    1.487    1.483    1.480
 (dLV/dLP)t      -1.12057 -1.12089 -1.12120 -1.12150 -1.11412 -1.11460 -1.11508 -1.11554
 (dLV/dLT)p        2.2937   2.2947   2.2955   2.2963   2.2507   2.2536   2.2563   2.2589
 Cp, KJ/(KG)(K)  100.9723 101.0852 101.1900 101.2868  96.8828  97.1029  97.3162  97.5227
 GAMMAs            1.2218   1.2223   1.2229   1.2234   1.2159   1.2163   1.2168   1.2173
 SON VEL,M/SEC     6075.5   6090.2   6104.9   6119.6   5881.4   5895.5   5909.7   5923.8

 TRANSPORT PROPERTIES (GASES ONLY)
   CONDUCTIVITY IN UNITS OF MILLIWATTS/(CM)(K)

 VISC,MILLIPOISE  0.80998  0.81067  0.81134  0.81199  0.80305  0.80401  0.80497  0.80590

  WITH EQUILIBRIUM REACTIONS

 Cp, KJ/(KG)(K)  100.9723 101.0852 101.1900 101.2868  96.8828  97.1029  97.3162  97.5227
 CONDUCTIVITY    141.5888 141.6751 141.7489 141.8104 137.7320 137.9995 138.2554 138.4999
 PRANDTL NUMBER    0.5776   0.5784   0.5792   0.5800   0.5649   0.5657   0.5666   0.5675

  WITH FROZEN REACTIONS

 Cp, KJ/(KG)(K)   20.4846  20.4896  20.4945  20.4993  20.4207  20.4265  20.4322  20.4379
 CONDUCTIVITY     22.8780  22.8989  22.9192  22.9390  22.6900  22.7191  22.7475  22.7754
 PRANDTL NUMBER    0.7252   0.7254   0.7255   0.7256   0.7227   0.7229   0.7230   0.7232

 MOLE FRACTIONS

 *H               0.57740  0.58093  0.58444  0.58794  0.52123  0.52486  0.52847  0.53208
 *H2              0.42260  0.41907  0.41556  0.41206  0.47877  0.47514  0.47153  0.46792

  * THERMODYNAMIC PROPERTIES FITTED TO 20000.K

 NOTE. WEIGHT FRACTION OF FUEL IN TOTAL FUELS AND OF OXIDANT IN TOTAL OXIDANTS









               THERMODYNAMIC EQUILIBRIUM PROPERTIES AT ASSIGNED

                           TEMPERATURE AND PRESSURE

 CASE =                

             REACTANT                    WT FRACTION      ENERGY      TEMP
                                          (SEE NOTE)     KJ/KG-MOL      K  
             H2                           1.0000000         0.000      0.000

 O/F=    0.00000  %FUEL=100.000000  R,EQ.RATIO= 0.000000  PHI,EQ.RATIO= 0.000000

 THERMODYNAMIC PROPERTIES

 P, BAR            91.000   91.000   91.000   91.000   91.000   91.000   91.000   91.000
 T, K             5140.00  5150.00  5160.00  5170.00  5180.00  5190.00  5200.00  5210.00
 RHO, KG/CU M    3.1428-1 3.1290-1 3.1153-1 3.1016-1 3.0881-1 3.0746-1 3.0611-1 3.0478-1
 H, KJ/KG        169926.6 170904.8 171884.8 172866.7 173850.4 174835.7 175822.7 176811.1
 U, KJ/KG        140971.3 141821.8 142673.9 143527.3 144382.0 145237.9 146095.1 146953.3
 G, KJ/KG       -405883.1-407004.3-408127.4-409252.4-410379.3-411508.1-412638.8-413771.5
 S, KJ/(KG)(K)   112.0252 112.2154 112.4055 112.5956 112.7857 112.9757 113.1657 113.3556

 M, (1/n)           1.476    1.472    1.469    1.465    1.462    1.458    1.454    1.451
 (dLV/dLP)t      -1.11600 -1.11644 -1.11688 -1.11730 -1.11771 -1.11812 -1.11851 -1.11889
 (dLV/dLT)p        2.2615   2.2638   2.2661   2.2683   2.2703   2.2722   2.2740   2.2756
 Cp, KJ/(KG)(K)   97.7223  97.9149  98.1005  98.2790  98.4503  98.6144  98.7712  98.9207
 GAMMAs            1.2178   1.2182   1.2187   1.2192   1.2197   1.2202   1.2207   1.2212
 SON VEL,M/SEC     5938.0   5952.3   5966.6   5980.9   5995.2   6009.6   6024.0   6038.4

 TRANSPORT PROPERTIES (GASES ONLY)
   CONDUCTIVITY IN UNITS OF MILLIWATTS/(CM)(K)

 VISC,MILLIPOISE  0.80682  0.80772  0.80860  0.80946  0.81031  0.81114  0.81195  0.81275

  WITH EQUILIBRIUM REACTIONS

 Cp, KJ/(KG)(K)   97.7223  97.9149  98.1005  98.2790  98.4503  98.6144  98.7712  98.9207
 CONDUCTIVITY    138.7329 138.9542 139.1639 139.3619 139.5482 139.7227 139.8855 140.0364
 PRANDTL NUMBER    0.5683   0.5692   0.5700   0.5708   0.5717   0.5725   0.5733   0.5741

  WITH FROZEN REACTIONS

 Cp, KJ/(KG)(K)   20.4435  20.4490  20.4545  20.4598  20.4652  20.4704  20.4756  20.4808
 CONDUCTIVITY     22.8028  22.8296  22.8559  22.8816  22.9068  22.9315  22.9556  22.9792
 PRANDTL NUMBER    0.7233   0.7235   0.7236   0.7238   0.7239   0.7241   0.7242   0.7244

 MOLE FRACTIONS

 *H               0.53568  0.53926  0.54284  0.54641  0.54998  0.55353  0.55707  0.56060
 *H2              0.46432  0.46073  0.45715  0.45358  0.45002  0.44647  0.44293  0.43940

  * THERMODYNAMIC PROPERTIES FITTED TO 20000.K

 NOTE. WEIGHT FRACTION OF FUEL IN TOTAL FUELS AND OF OXIDANT IN TOTAL OXIDANTS









               THERMODYNAMIC EQUILIBRIUM PROPERTIES AT ASSIGNED

                           TEMPERATURE AND PRESSURE

 CASE =                

             REACTANT                    WT FRACTION      ENERGY      TEMP
                                          (SEE NOTE)     KJ/KG-MOL      K  
             H2                           1.0000000         0.000      0.000

 O/F=    0.00000  %FUEL=100.000000  R,EQ.RATIO= 0.000000  PHI,EQ.RATIO= 0.000000

 THERMODYNAMIC PROPERTIES

 P, BAR            91.000   91.000   91.000   100.00   100.00   100.00   100.00   100.00
 T, K             5220.00  5230.00  5240.00  5100.00  5110.00  5120.00  5130.00  5140.00
 RHO, KG/CU M    3.0345-1 3.0213-1 3.0082-1 3.5527-1 3.5372-1 3.5218-1 3.5065-1 3.4912-1
 H, KJ/KG        177801.1 178792.4 179785.0 162728.3 163675.5 164625.0 165576.8 166530.8
 U, KJ/KG        147812.6 148672.9 149534.1 134580.6 135404.6 136230.6 137058.3 137887.8
 G, KJ/KG       -414906.0-416042.4-417180.7-398748.5-399850.4-400954.1-402059.7-403167.1
 S, KJ/(KG)(K)   113.5454 113.7351 113.9247 110.0935 110.2790 110.4647 110.6504 110.8362

 M, (1/n)           1.447    1.444    1.440    1.506    1.503    1.499    1.496    1.492
 (dLV/dLP)t      -1.11926 -1.11962 -1.11997 -1.11190 -1.11242 -1.11292 -1.11342 -1.11391
 (dLV/dLT)p        2.2772   2.2786   2.2799   2.2264   2.2296   2.2328   2.2358   2.2388
 Cp, KJ/(KG)(K)   99.0628  99.1974  99.3246  94.5971  94.8348  95.0663  95.2916  95.5107
 GAMMAs            1.2217   1.2222   1.2227   1.2155   1.2160   1.2164   1.2169   1.2173
 SON VEL,M/SEC     6052.8   6067.3   6081.8   5849.2   5863.1   5877.0   5890.9   5904.9

 TRANSPORT PROPERTIES (GASES ONLY)
   CONDUCTIVITY IN UNITS OF MILLIWATTS/(CM)(K)

 VISC,MILLIPOISE  0.81353  0.81429  0.81503  0.80443  0.80548  0.80651  0.80752  0.80852

  WITH EQUILIBRIUM REACTIONS

 Cp, KJ/(KG)(K)   99.0628  99.1974  99.3246  94.5971  94.8348  95.0663  95.2916  95.5107
 CONDUCTIVITY    140.1755 140.3028 140.4182 135.5599 135.8665 136.1625 136.4478 136.7222
 PRANDTL NUMBER    0.5749   0.5757   0.5765   0.5614   0.5622   0.5631   0.5640   0.5648

  WITH FROZEN REACTIONS

 Cp, KJ/(KG)(K)   20.4858  20.4909  20.4958  20.4163  20.4221  20.4279  20.4336  20.4393
 CONDUCTIVITY     23.0023  23.0249  23.0470  22.7541  22.7853  22.8160  22.8462  22.8758
 PRANDTL NUMBER    0.7245   0.7247   0.7248   0.7218   0.7219   0.7221   0.7223   0.7224

 MOLE FRACTIONS

 *H               0.56412  0.56762  0.57112  0.50539  0.50898  0.51256  0.51614  0.51971
 *H2              0.43588  0.43238  0.42888  0.49461  0.49102  0.48744  0.48386  0.48029

  * THERMODYNAMIC PROPERTIES FITTED TO 20000.K

 NOTE. WEIGHT FRACTION OF FUEL IN TOTAL FUELS AND OF OXIDANT IN TOTAL OXIDANTS









               THERMODYNAMIC EQUILIBRIUM PROPERTIES AT ASSIGNED

                           TEMPERATURE AND PRESSURE

 CASE =                

             REACTANT                    WT FRACTION      ENERGY      TEMP
                                          (SEE NOTE)     KJ/KG-MOL      K  
             H2                           1.0000000         0.000      0.000

 O/F=    0.00000  %FUEL=100.000000  R,EQ.RATIO= 0.000000  PHI,EQ.RATIO= 0.000000

 THERMODYNAMIC PROPERTIES

 P, BAR            100.00   100.00   100.00   100.00   100.00   100.00   100.00   100.00
 T, K             5150.00  5160.00  5170.00  5180.00  5190.00  5200.00  5210.00  5220.00
 RHO, KG/CU M    3.4761-1 3.4610-1 3.4460-1 3.4310-1 3.4162-1 3.4014-1 3.3867-1 3.3721-1
 H, KJ/KG        167487.0 168445.3 169405.6 170367.8 171332.0 172298.0 173265.8 174235.2
 U, KJ/KG        138719.0 139551.8 140386.2 141222.1 142059.5 142898.3 143738.4 144579.8
 G, KJ/KG       -404276.4-405387.6-406500.6-407615.4-408732.2-409850.7-410971.2-412093.5
 S, KJ/(KG)(K)   111.0220 111.2079 111.3938 111.5798 111.7657 111.9517 112.1376 112.3235

 M, (1/n)           1.488    1.485    1.481    1.478    1.474    1.471    1.467    1.464
 (dLV/dLP)t      -1.11439 -1.11486 -1.11533 -1.11578 -1.11622 -1.11665 -1.11707 -1.11749
 (dLV/dLT)p        2.2416   2.2443   2.2469   2.2494   2.2518   2.2540   2.2561   2.2582
 Cp, KJ/(KG)(K)   95.7234  95.9297  96.1296  96.3229  96.5095  96.6896  96.8628  97.0293
 GAMMAs            1.2178   1.2182   1.2187   1.2192   1.2197   1.2201   1.2206   1.2211
 SON VEL,M/SEC     5918.9   5932.9   5947.0   5961.0   5975.2   5989.3   6003.5   6017.7

 TRANSPORT PROPERTIES (GASES ONLY)
   CONDUCTIVITY IN UNITS OF MILLIWATTS/(CM)(K)

 VISC,MILLIPOISE  0.80950  0.81047  0.81141  0.81234  0.81326  0.81415  0.81503  0.81590

  WITH EQUILIBRIUM REACTIONS

 Cp, KJ/(KG)(K)   95.7234  95.9297  96.1296  96.3229  96.5095  96.6896  96.8628  97.0293
 CONDUCTIVITY    136.9857 137.2382 137.4798 137.7103 137.9297 138.1380 138.3351 138.5210
 PRANDTL NUMBER    0.5657   0.5665   0.5674   0.5682   0.5690   0.5699   0.5707   0.5715

  WITH FROZEN REACTIONS

 Cp, KJ/(KG)(K)   20.4449  20.4505  20.4559  20.4613  20.4667  20.4720  20.4772  20.4824
 CONDUCTIVITY     22.9048  22.9333  22.9613  22.9887  23.0156  23.0420  23.0678  23.0931
 PRANDTL NUMBER    0.7226   0.7227   0.7229   0.7230   0.7232   0.7233   0.7235   0.7237

 MOLE FRACTIONS

 *H               0.52328  0.52683  0.53038  0.53392  0.53745  0.54098  0.54449  0.54799
 *H2              0.47672  0.47317  0.46962  0.46608  0.46255  0.45902  0.45551  0.45201

  * THERMODYNAMIC PROPERTIES FITTED TO 20000.K

 NOTE. WEIGHT FRACTION OF FUEL IN TOTAL FUELS AND OF OXIDANT IN TOTAL OXIDANTS









               THERMODYNAMIC EQUILIBRIUM PROPERTIES AT ASSIGNED

                           TEMPERATURE AND PRESSURE

 CASE =                

             REACTANT                    WT FRACTION      ENERGY      TEMP
                                          (SEE NOTE)     KJ/KG-MOL      K  
             H2                           1.0000000         0.000      0.000

 O/F=    0.00000  %FUEL=100.000000  R,EQ.RATIO= 0.000000  PHI,EQ.RATIO= 0.000000

 THERMODYNAMIC PROPERTIES

 P, BAR            100.00   100.00   110.00   110.00   110.00   110.00   110.00   110.00
 T, K             5230.00  5240.00  5100.00  5110.00  5120.00  5130.00  5140.00  5150.00
 RHO, KG/CU M    3.3575-1 3.3430-1 3.9494-1 3.9324-1 3.9155-1 3.8986-1 3.8819-1 3.8652-1
 H, KJ/KG        175206.3 176179.0 159489.9 160413.8 161340.1 162268.9 163200.1 164133.5
 U, KJ/KG        145422.4 146266.1 131637.7 132441.1 133246.6 134054.0 134863.3 135674.5
 G, KJ/KG       -413217.7-414343.7-396079.9-397170.2-398262.2-399356.1-400451.8-401549.3
 S, KJ/(KG)(K)   112.5094 112.6952 108.9353 109.1162 109.2973 109.4786 109.6599 109.8413

 M, (1/n)           1.460    1.456    1.522    1.519    1.515    1.512    1.508    1.505
 (dLV/dLP)t      -1.11789 -1.11828 -1.10953 -1.11007 -1.11061 -1.11114 -1.11166 -1.11217
 (dLV/dLT)p        2.2601   2.2619   2.2004   2.2040   2.2075   2.2109   2.2142   2.2175
 Cp, KJ/(KG)(K)   97.1890  97.3418  92.2578  92.5100  92.7566  92.9977  93.2331  93.4628
 GAMMAs            1.2216   1.2221   1.2152   1.2156   1.2160   1.2165   1.2169   1.2174
 SON VEL,M/SEC     6032.0   6046.2   5817.7   5831.3   5844.9   5858.6   5872.3   5886.0

 TRANSPORT PROPERTIES (GASES ONLY)
   CONDUCTIVITY IN UNITS OF MILLIWATTS/(CM)(K)

 VISC,MILLIPOISE  0.81674  0.81757  0.80550  0.80662  0.80773  0.80882  0.80990  0.81096

  WITH EQUILIBRIUM REACTIONS

 Cp, KJ/(KG)(K)   97.1890  97.3418  92.2578  92.5100  92.7566  92.9977  93.2331  93.4628
 CONDUCTIVITY    138.6956 138.8590 133.2244 133.5665 133.8986 134.2207 134.5328 134.8346
 PRANDTL NUMBER    0.5723   0.5731   0.5578   0.5587   0.5595   0.5604   0.5613   0.5621

  WITH FROZEN REACTIONS

 Cp, KJ/(KG)(K)   20.4875  20.4925  20.4119  20.4178  20.4237  20.4295  20.4352  20.4409
 CONDUCTIVITY     23.1179  23.1422  22.8102  22.8437  22.8766  22.9090  22.9408  22.9721
 PRANDTL NUMBER    0.7238   0.7240   0.7208   0.7210   0.7211   0.7213   0.7214   0.7216

 MOLE FRACTIONS

 *H               0.55149  0.55497  0.48953  0.49308  0.49663  0.50017  0.50371  0.50724
 *H2              0.44851  0.44503  0.51047  0.50692  0.50337  0.49983  0.49629  0.49276

  * THERMODYNAMIC PROPERTIES FITTED TO 20000.K

 NOTE. WEIGHT FRACTION OF FUEL IN TOTAL FUELS AND OF OXIDANT IN TOTAL OXIDANTS









               THERMODYNAMIC EQUILIBRIUM PROPERTIES AT ASSIGNED

                           TEMPERATURE AND PRESSURE

 CASE =                

             REACTANT                    WT FRACTION      ENERGY      TEMP
                                          (SEE NOTE)     KJ/KG-MOL      K  
             H2                           1.0000000         0.000      0.000

 O/F=    0.00000  %FUEL=100.000000  R,EQ.RATIO= 0.000000  PHI,EQ.RATIO= 0.000000

 THERMODYNAMIC PROPERTIES

 P, BAR            110.00   110.00   110.00   110.00   110.00   110.00   110.00   110.00
 T, K             5160.00  5170.00  5180.00  5190.00  5200.00  5210.00  5220.00  5230.00
 RHO, KG/CU M    3.8486-1 3.8321-1 3.8156-1 3.7993-1 3.7830-1 3.7668-1 3.7507-1 3.7347-1
 H, KJ/KG        165069.3 166007.3 166947.4 167889.6 168833.8 169780.0 170728.1 171678.1
 U, KJ/KG        136487.5 137302.2 138118.6 138936.7 139756.3 140577.5 141400.2 142224.2
 G, KJ/KG       -402648.6-403749.8-404852.7-405957.5-407064.1-408172.5-409282.7-410394.8
 S, KJ/(KG)(K)   110.0229 110.2045 110.3861 110.5678 110.7496 110.9314 111.1132 111.2950

 M, (1/n)           1.501    1.498    1.494    1.490    1.487    1.483    1.480    1.476
 (dLV/dLP)t      -1.11267 -1.11317 -1.11365 -1.11413 -1.11460 -1.11506 -1.11551 -1.11595
 (dLV/dLT)p        2.2206   2.2236   2.2265   2.2292   2.2319   2.2345   2.2370   2.2393
 Cp, KJ/(KG)(K)   93.6867  93.9047  94.1168  94.3229  94.5229  94.7167  94.9044  95.0858
 GAMMAs            1.2178   1.2183   1.2187   1.2192   1.2197   1.2201   1.2206   1.2211
 SON VEL,M/SEC     5899.8   5913.6   5927.4   5941.3   5955.2   5969.2   5983.1   5997.1

 TRANSPORT PROPERTIES (GASES ONLY)
   CONDUCTIVITY IN UNITS OF MILLIWATTS/(CM)(K)

 VISC,MILLIPOISE  0.81200  0.81303  0.81404  0.81503  0.81601  0.81697  0.81792  0.81885

  WITH EQUILIBRIUM REACTIONS

 Cp, KJ/(KG)(K)   93.6867  93.9047  94.1168  94.3229  94.5229  94.7167  94.9044  95.0858
 CONDUCTIVITY    135.1263 135.4076 135.6787 135.9393 136.1894 136.4290 136.6581 136.8766
 PRANDTL NUMBER    0.5630   0.5638   0.5647   0.5655   0.5664   0.5672   0.5680   0.5688

  WITH FROZEN REACTIONS

 Cp, KJ/(KG)(K)   20.4465  20.4521  20.4576  20.4630  20.4684  20.4737  20.4789  20.4841
 CONDUCTIVITY     23.0028  23.0330  23.0627  23.0918  23.1204  23.1485  23.1761  23.2031
 PRANDTL NUMBER    0.7218   0.7219   0.7221   0.7222   0.7224   0.7226   0.7227   0.7229

 MOLE FRACTIONS

 *H               0.51077  0.51429  0.51780  0.52131  0.52481  0.52830  0.53178  0.53525
 *H2              0.48923  0.48571  0.48220  0.47869  0.47519  0.47170  0.46822  0.46474

  * THERMODYNAMIC PROPERTIES FITTED TO 20000.K

 NOTE. WEIGHT FRACTION OF FUEL IN TOTAL FUELS AND OF OXIDANT IN TOTAL OXIDANTS









               THERMODYNAMIC EQUILIBRIUM PROPERTIES AT ASSIGNED

                           TEMPERATURE AND PRESSURE

 CASE =                

             REACTANT                    WT FRACTION      ENERGY      TEMP
                                          (SEE NOTE)     KJ/KG-MOL      K  
             H2                           1.0000000         0.000      0.000

 O/F=    0.00000  %FUEL=100.000000  R,EQ.RATIO= 0.000000  PHI,EQ.RATIO= 0.000000

 THERMODYNAMIC PROPERTIES

 P, BAR            110.00   120.00   120.00   120.00   120.00   120.00   120.00   120.00
 T, K             5240.00  5100.00  5110.00  5120.00  5130.00  5140.00  5150.00  5160.00
 RHO, KG/CU M    3.7187-1 4.3493-1 4.3308-1 4.3123-1 4.2940-1 4.2757-1 4.2575-1 4.2394-1
 H, KJ/KG        172629.8 156624.3 157526.7 158431.7 159339.3 160249.3 161161.8 162076.7
 U, KJ/KG        143049.6 129033.5 129818.0 130604.6 131393.2 132183.9 132976.6 133771.2
 G, KJ/KG       -411508.6-393667.9-394747.8-395829.4-396912.9-397998.1-399085.0-400173.8
 S, KJ/(KG)(K)   111.4768 107.9004 108.0772 108.2541 108.4312 108.6084 108.7858 108.9633

 M, (1/n)           1.473    1.537    1.533    1.530    1.526    1.523    1.519    1.516
 (dLV/dLP)t      -1.11638 -1.10726 -1.10783 -1.10839 -1.10894 -1.10948 -1.11002 -1.11055
 (dLV/dLT)p        2.2415   2.1756   2.1795   2.1833   2.1870   2.1906   2.1941   2.1976
 Cp, KJ/(KG)(K)   95.2609  90.1083  90.3711  90.6290  90.8817  91.1294  91.3718  91.6090
 GAMMAs            1.2216   1.2149   1.2153   1.2158   1.2162   1.2166   1.2170   1.2175
 SON VEL,M/SEC     6011.1   5789.7   5803.1   5816.5   5829.9   5843.4   5856.9   5870.4

 TRANSPORT PROPERTIES (GASES ONLY)
   CONDUCTIVITY IN UNITS OF MILLIWATTS/(CM)(K)

 VISC,MILLIPOISE  0.81976  0.80620  0.80739  0.80856  0.80972  0.81086  0.81199  0.81310

  WITH EQUILIBRIUM REACTIONS

 Cp, KJ/(KG)(K)   95.2609  90.1083  90.3711  90.6290  90.8817  91.1294  91.3718  91.6090
 CONDUCTIVITY    137.0844 130.9861 131.3568 131.7182 132.0704 132.4131 132.7463 133.0700
 PRANDTL NUMBER    0.5697   0.5546   0.5555   0.5563   0.5572   0.5581   0.5589   0.5598

  WITH FROZEN REACTIONS

 Cp, KJ/(KG)(K)   20.4892  20.4080  20.4140  20.4199  20.4258  20.4316  20.4374  20.4431
 CONDUCTIVITY     23.2296  22.8541  22.8896  22.9245  22.9588  22.9927  23.0259  23.0587
 PRANDTL NUMBER    0.7231   0.7199   0.7201   0.7202   0.7204   0.7205   0.7207   0.7209

 MOLE FRACTIONS

 *H               0.53872  0.47522  0.47873  0.48224  0.48574  0.48925  0.49274  0.49624
 *H2              0.46128  0.52478  0.52127  0.51776  0.51426  0.51075  0.50726  0.50376

  * THERMODYNAMIC PROPERTIES FITTED TO 20000.K

 NOTE. WEIGHT FRACTION OF FUEL IN TOTAL FUELS AND OF OXIDANT IN TOTAL OXIDANTS









               THERMODYNAMIC EQUILIBRIUM PROPERTIES AT ASSIGNED

                           TEMPERATURE AND PRESSURE

 CASE =                

             REACTANT                    WT FRACTION      ENERGY      TEMP
                                          (SEE NOTE)     KJ/KG-MOL      K  
             H2                           1.0000000         0.000      0.000

 O/F=    0.00000  %FUEL=100.000000  R,EQ.RATIO= 0.000000  PHI,EQ.RATIO= 0.000000

 THERMODYNAMIC PROPERTIES

 P, BAR            120.00   120.00   120.00   120.00   120.00   120.00   120.00   120.00
 T, K             5170.00  5180.00  5190.00  5200.00  5210.00  5220.00  5230.00  5240.00
 RHO, KG/CU M    4.2214-1 4.2035-1 4.1857-1 4.1679-1 4.1502-1 4.1326-1 4.1151-1 4.0977-1
 H, KJ/KG        162994.0 163913.5 164835.3 165759.3 166685.4 167613.5 168543.7 169475.8
 U, KJ/KG        134567.6 135365.9 136166.0 136967.8 137771.3 138576.4 139383.1 140191.3
 G, KJ/KG       -401264.3-402356.6-403450.7-404546.5-405644.1-406743.6-407844.8-408947.7
 S, KJ/(KG)(K)   109.1409 109.3186 109.4963 109.6742 109.8521 110.0301 110.2081 110.3862

 M, (1/n)           1.512    1.509    1.505    1.502    1.498    1.495    1.491    1.488
 (dLV/dLP)t      -1.11107 -1.11158 -1.11209 -1.11258 -1.11307 -1.11355 -1.11402 -1.11449
 (dLV/dLT)p        2.2009   2.2041   2.2073   2.2103   2.2132   2.2160   2.2188   2.2214
 Cp, KJ/(KG)(K)   91.8408  92.0672  92.2882  92.5035  92.7133  92.9174  93.1158  93.3084
 GAMMAs            1.2179   1.2184   1.2188   1.2193   1.2197   1.2202   1.2206   1.2211
 SON VEL,M/SEC     5884.0   5897.6   5911.2   5924.9   5938.6   5952.3   5966.1   5979.9

 TRANSPORT PROPERTIES (GASES ONLY)
   CONDUCTIVITY IN UNITS OF MILLIWATTS/(CM)(K)

 VISC,MILLIPOISE  0.81420  0.81528  0.81634  0.81739  0.81843  0.81944  0.82045  0.82143

  WITH EQUILIBRIUM REACTIONS

 Cp, KJ/(KG)(K)   91.8408  92.0672  92.2882  92.5035  92.7133  92.9174  93.1158  93.3084
 CONDUCTIVITY    133.3840 133.6884 133.9829 134.2677 134.5425 134.8074 135.0624 135.3072
 PRANDTL NUMBER    0.5606   0.5615   0.5623   0.5631   0.5640   0.5648   0.5656   0.5665

  WITH FROZEN REACTIONS

 Cp, KJ/(KG)(K)   20.4487  20.4542  20.4598  20.4652  20.4706  20.4759  20.4812  20.4863
 CONDUCTIVITY     23.0909  23.1226  23.1537  23.1844  23.2145  23.2440  23.2731  23.3016
 PRANDTL NUMBER    0.7210   0.7212   0.7214   0.7215   0.7217   0.7219   0.7220   0.7222

 MOLE FRACTIONS

 *H               0.49972  0.50320  0.50668  0.51015  0.51362  0.51707  0.52053  0.52397
 *H2              0.50028  0.49679  0.49332  0.48985  0.48638  0.48292  0.47947  0.47603

  * THERMODYNAMIC PROPERTIES FITTED TO 20000.K

 NOTE. WEIGHT FRACTION OF FUEL IN TOTAL FUELS AND OF OXIDANT IN TOTAL OXIDANTS









               THERMODYNAMIC EQUILIBRIUM PROPERTIES AT ASSIGNED

                           TEMPERATURE AND PRESSURE

 CASE =                

             REACTANT                    WT FRACTION      ENERGY      TEMP
                                          (SEE NOTE)     KJ/KG-MOL      K  
             H2                           1.0000000         0.000      0.000

 O/F=    0.00000  %FUEL=100.000000  R,EQ.RATIO= 0.000000  PHI,EQ.RATIO= 0.000000

 THERMODYNAMIC PROPERTIES

 P, BAR            132.00   132.00   132.00   132.00   132.00   132.00   132.00   132.00
 T, K             5100.00  5110.00  5120.00  5130.00  5140.00  5150.00  5160.00  5170.00
 RHO, KG/CU M    4.8328-1 4.8125-1 4.7923-1 4.7721-1 4.7521-1 4.7321-1 4.7122-1 4.6925-1
 H, KJ/KG        153585.1 154464.0 155345.6 156229.8 157116.6 158006.0 158897.9 159792.2
 U, KJ/KG        126271.7 127035.3 127801.1 128569.1 129339.3 130111.5 130885.7 131662.0
 G, KJ/KG       -391051.5-392120.3-393190.8-394263.0-395336.9-396412.6-397490.0-398569.2
 S, KJ/(KG)(K)   106.7915 106.9637 107.1360 107.3085 107.4812 107.6541 107.8271 108.0003

 M, (1/n)           1.552    1.549    1.546    1.542    1.539    1.535    1.532    1.528
 (dLV/dLP)t      -1.10469 -1.10528 -1.10586 -1.10643 -1.10700 -1.10756 -1.10811 -1.10866
 (dLV/dLT)p        2.1474   2.1516   2.1557   2.1597   2.1636   2.1674   2.1711   2.1748
 Cp, KJ/(KG)(K)   87.7505  88.0224  88.2898  88.5527  88.8110  89.0647  89.3136  89.5577
 GAMMAs            1.2147   1.2151   1.2155   1.2159   1.2163   1.2167   1.2172   1.2176
 SON VEL,M/SEC     5760.0   5773.1   5786.2   5799.4   5812.6   5825.8   5839.1   5852.4

 TRANSPORT PROPERTIES (GASES ONLY)
   CONDUCTIVITY IN UNITS OF MILLIWATTS/(CM)(K)

 VISC,MILLIPOISE  0.80667  0.80793  0.80917  0.81040  0.81161  0.81281  0.81399  0.81516

  WITH EQUILIBRIUM REACTIONS

 Cp, KJ/(KG)(K)   87.7505  88.0224  88.2898  88.5527  88.8110  89.0647  89.3136  89.5577
 CONDUCTIVITY    128.4356 128.8338 129.2235 129.6047 129.9771 130.3408 130.6957 131.0416
 PRANDTL NUMBER    0.5511   0.5520   0.5529   0.5537   0.5546   0.5554   0.5563   0.5571

  WITH FROZEN REACTIONS

 Cp, KJ/(KG)(K)   20.4039  20.4100  20.4160  20.4219  20.4278  20.4336  20.4394  20.4451
 CONDUCTIVITY     22.8942  22.9318  22.9688  23.0053  23.0413  23.0767  23.1116  23.1460
 PRANDTL NUMBER    0.7189   0.7191   0.7192   0.7194   0.7196   0.7197   0.7199   0.7200

 MOLE FRACTIONS

 *H               0.45973  0.46320  0.46666  0.47012  0.47358  0.47703  0.48048  0.48393
 *H2              0.54026  0.53680  0.53334  0.52988  0.52642  0.52297  0.51952  0.51607

  * THERMODYNAMIC PROPERTIES FITTED TO 20000.K

 NOTE. WEIGHT FRACTION OF FUEL IN TOTAL FUELS AND OF OXIDANT IN TOTAL OXIDANTS









               THERMODYNAMIC EQUILIBRIUM PROPERTIES AT ASSIGNED

                           TEMPERATURE AND PRESSURE

 CASE =                

             REACTANT                    WT FRACTION      ENERGY      TEMP
                                          (SEE NOTE)     KJ/KG-MOL      K  
             H2                           1.0000000         0.000      0.000

 O/F=    0.00000  %FUEL=100.000000  R,EQ.RATIO= 0.000000  PHI,EQ.RATIO= 0.000000

 THERMODYNAMIC PROPERTIES

 P, BAR            132.00   132.00   132.00   132.00   132.00   132.00   132.00   148.00
 T, K             5180.00  5190.00  5200.00  5210.00  5220.00  5230.00  5240.00  5100.00
 RHO, KG/CU M    4.6728-1 4.6532-1 4.6336-1 4.6142-1 4.5949-1 4.5756-1 4.5565-1 5.4829-1
 H, KJ/KG        160689.0 161588.2 162489.6 163393.4 164299.3 165207.4 166117.6 150074.6
 U, KJ/KG        132440.2 133220.3 134002.3 134786.1 135571.7 136358.9 137147.9 123081.4
 G, KJ/KG       -399650.0-400732.6-401817.0-402903.0-403990.9-405080.4-406171.7-387945.0
 S, KJ/(KG)(K)   108.1736 108.3470 108.5205 108.6941 108.8678 109.0416 109.2155 105.4940

 M, (1/n)           1.525    1.521    1.518    1.514    1.511    1.507    1.504    1.571
 (dLV/dLP)t      -1.10919 -1.10973 -1.11025 -1.11077 -1.11127 -1.11177 -1.11227 -1.10151
 (dLV/dLT)p        2.1784   2.1818   2.1852   2.1885   2.1916   2.1947   2.1977   2.1125
 Cp, KJ/(KG)(K)   89.7970  90.0313  90.2606  90.4849  90.7041  90.9180  91.1268  84.9313
 GAMMAs            1.2180   1.2184   1.2189   1.2193   1.2198   1.2202   1.2206   1.2145
 SON VEL,M/SEC     5865.8   5879.1   5892.6   5906.0   5919.5   5933.0   5946.6   5725.6

 TRANSPORT PROPERTIES (GASES ONLY)
   CONDUCTIVITY IN UNITS OF MILLIWATTS/(CM)(K)

 VISC,MILLIPOISE  0.81631  0.81745  0.81858  0.81969  0.82078  0.82186  0.82292  0.80686

  WITH EQUILIBRIUM REACTIONS

 Cp, KJ/(KG)(K)   89.7970  90.0313  90.2606  90.4849  90.7041  90.9180  91.1268  84.9313
 CONDUCTIVITY    131.3785 131.7064 132.0251 132.3347 132.6349 132.9259 133.2074 125.2625
 PRANDTL NUMBER    0.5579   0.5588   0.5596   0.5605   0.5613   0.5621   0.5630   0.5471

  WITH FROZEN REACTIONS

 Cp, KJ/(KG)(K)   20.4507  20.4563  20.4618  20.4673  20.4727  20.4780  20.4833  20.3991
 CONDUCTIVITY     23.1798  23.2131  23.2459  23.2782  23.3100  23.3412  23.3719  22.9317
 PRANDTL NUMBER    0.7202   0.7204   0.7205   0.7207   0.7209   0.7210   0.7212   0.7177

 MOLE FRACTIONS

 *H               0.48737  0.49081  0.49425  0.49767  0.50110  0.50452  0.50793  0.44146
 *H2              0.51263  0.50919  0.50575  0.50232  0.49890  0.49548  0.49207  0.55854

  * THERMODYNAMIC PROPERTIES FITTED TO 20000.K

 NOTE. WEIGHT FRACTION OF FUEL IN TOTAL FUELS AND OF OXIDANT IN TOTAL OXIDANTS









               THERMODYNAMIC EQUILIBRIUM PROPERTIES AT ASSIGNED

                           TEMPERATURE AND PRESSURE

 CASE =                

             REACTANT                    WT FRACTION      ENERGY      TEMP
                                          (SEE NOTE)     KJ/KG-MOL      K  
             H2                           1.0000000         0.000      0.000

 O/F=    0.00000  %FUEL=100.000000  R,EQ.RATIO= 0.000000  PHI,EQ.RATIO= 0.000000

 THERMODYNAMIC PROPERTIES

 P, BAR            148.00   148.00   148.00   148.00   148.00   148.00   148.00   148.00
 T, K             5110.00  5120.00  5130.00  5140.00  5150.00  5160.00  5170.00  5180.00
 RHO, KG/CU M    5.4602-1 5.4376-1 5.4151-1 5.3928-1 5.3705-1 5.3483-1 5.3261-1 5.3041-1
 H, KJ/KG        150925.3 151778.8 152635.0 153493.9 154355.5 155219.7 156086.5 156955.8
 U, KJ/KG        123820.1 124561.0 125304.3 126049.7 126797.3 127547.1 128299.0 129052.9
 G, KJ/KG       -389000.8-390058.2-391117.3-392178.1-393240.6-394304.7-395370.5-396438.0
 S, KJ/(KG)(K)   105.6607 105.8275 105.9946 106.1619 106.3293 106.4970 106.6648 106.8328

 M, (1/n)           1.567    1.564    1.561    1.557    1.554    1.550    1.547    1.544
 (dLV/dLP)t      -1.10211 -1.10271 -1.10331 -1.10389 -1.10448 -1.10505 -1.10562 -1.10618
 (dLV/dLT)p        2.1169   2.1213   2.1256   2.1298   2.1340   2.1380   2.1420   2.1459
 Cp, KJ/(KG)(K)   85.2108  85.4864  85.7581  86.0258  86.2894  86.5489  86.8043  87.0554
 GAMMAs            1.2149   1.2152   1.2156   1.2160   1.2164   1.2168   1.2172   1.2176
 SON VEL,M/SEC     5738.4   5751.2   5764.0   5776.9   5789.9   5802.8   5815.8   5828.9

 TRANSPORT PROPERTIES (GASES ONLY)
   CONDUCTIVITY IN UNITS OF MILLIWATTS/(CM)(K)

 VISC,MILLIPOISE  0.80819  0.80951  0.81081  0.81210  0.81338  0.81465  0.81590  0.81713

  WITH EQUILIBRIUM REACTIONS

 Cp, KJ/(KG)(K)   85.2108  85.4864  85.7581  86.0258  86.2894  86.5489  86.8043  87.0554
 CONDUCTIVITY    125.6888 126.1073 126.5182 126.9212 127.3163 127.7034 128.0824 128.4532
 PRANDTL NUMBER    0.5479   0.5488   0.5496   0.5504   0.5513   0.5521   0.5530   0.5538

  WITH FROZEN REACTIONS

 Cp, KJ/(KG)(K)   20.4053  20.4114  20.4174  20.4233  20.4292  20.4351  20.4409  20.4466
 CONDUCTIVITY     22.9717  23.0112  23.0501  23.0886  23.1265  23.1639  23.2008  23.2372
 PRANDTL NUMBER    0.7179   0.7180   0.7182   0.7184   0.7185   0.7187   0.7188   0.7190

 MOLE FRACTIONS

 *H               0.44486  0.44826  0.45165  0.45505  0.45844  0.46184  0.46523  0.46862
 *H2              0.55514  0.55174  0.54835  0.54495  0.54155  0.53816  0.53477  0.53138

  * THERMODYNAMIC PROPERTIES FITTED TO 20000.K

 NOTE. WEIGHT FRACTION OF FUEL IN TOTAL FUELS AND OF OXIDANT IN TOTAL OXIDANTS









               THERMODYNAMIC EQUILIBRIUM PROPERTIES AT ASSIGNED

                           TEMPERATURE AND PRESSURE

 CASE =                

             REACTANT                    WT FRACTION      ENERGY      TEMP
                                          (SEE NOTE)     KJ/KG-MOL      K  
             H2                           1.0000000         0.000      0.000

 O/F=    0.00000  %FUEL=100.000000  R,EQ.RATIO= 0.000000  PHI,EQ.RATIO= 0.000000

 THERMODYNAMIC PROPERTIES

 P, BAR            148.00   148.00   148.00   148.00   148.00   148.00   165.00   165.00
 T, K             5190.00  5200.00  5210.00  5220.00  5230.00  5240.00  5100.00  5110.00
 RHO, KG/CU M    5.2822-1 5.2604-1 5.2386-1 5.2170-1 5.1954-1 5.1740-1 6.1795-1 6.1543-1
 H, KJ/KG        157827.6 158701.8 159578.4 160457.4 161338.7 162222.3 146876.5 147700.7
 U, KJ/KG        129808.9 130566.8 131326.7 132088.5 132852.2 133617.7 120175.1 120890.3
 G, KJ/KG       -397507.2-398578.0-399650.5-400724.8-401800.7-402878.3-385025.9-386069.7
 S, KJ/(KG)(K)   107.0009 107.1692 107.3376 107.5062 107.6748 107.8436 104.2946 104.4560

 M, (1/n)           1.540    1.537    1.533    1.530    1.527    1.523    1.588    1.585
 (dLV/dLP)t      -1.10674 -1.10729 -1.10784 -1.10837 -1.10891 -1.10943 -1.09841 -1.09902
 (dLV/dLT)p        2.1497   2.1534   2.1570   2.1606   2.1641   2.1674   2.0785   2.0831
 Cp, KJ/(KG)(K)   87.3021  87.5445  87.7825  88.0159  88.2448  88.4690  82.2780  82.5617
 GAMMAs            1.2181   1.2185   1.2189   1.2193   1.2197   1.2202   1.2143   1.2147
 SON VEL,M/SEC     5841.9   5855.0   5868.2   5881.4   5894.6   5907.8   5694.2   5706.7

 TRANSPORT PROPERTIES (GASES ONLY)
   CONDUCTIVITY IN UNITS OF MILLIWATTS/(CM)(K)

 VISC,MILLIPOISE  0.81836  0.81957  0.82076  0.82194  0.82310  0.82426  0.80668  0.80808

  WITH EQUILIBRIUM REACTIONS

 Cp, KJ/(KG)(K)   87.3021  87.5445  87.7825  88.0159  88.2448  88.4690  82.2780  82.5617
 CONDUCTIVITY    128.8158 129.1701 129.5161 129.8535 130.1825 130.5029 122.1595 122.6075
 PRANDTL NUMBER    0.5546   0.5555   0.5563   0.5571   0.5579   0.5588   0.5433   0.5441

  WITH FROZEN REACTIONS

 Cp, KJ/(KG)(K)   20.4523  20.4579  20.4634  20.4689  20.4743  20.4797  20.3948  20.4010
 CONDUCTIVITY     23.2730  23.3084  23.3432  23.3775  23.4113  23.4446  22.9569  22.9991
 PRANDTL NUMBER    0.7192   0.7193   0.7195   0.7197   0.7198   0.7200   0.7166   0.7168

 MOLE FRACTIONS

 *H               0.47200  0.47539  0.47877  0.48214  0.48552  0.48889  0.42442  0.42776
 *H2              0.52799  0.52461  0.52123  0.51786  0.51448  0.51111  0.57558  0.57224

  * THERMODYNAMIC PROPERTIES FITTED TO 20000.K

 NOTE. WEIGHT FRACTION OF FUEL IN TOTAL FUELS AND OF OXIDANT IN TOTAL OXIDANTS









               THERMODYNAMIC EQUILIBRIUM PROPERTIES AT ASSIGNED

                           TEMPERATURE AND PRESSURE

 CASE =                

             REACTANT                    WT FRACTION      ENERGY      TEMP
                                          (SEE NOTE)     KJ/KG-MOL      K  
             H2                           1.0000000         0.000      0.000

 O/F=    0.00000  %FUEL=100.000000  R,EQ.RATIO= 0.000000  PHI,EQ.RATIO= 0.000000

 THERMODYNAMIC PROPERTIES

 P, BAR            165.00   165.00   165.00   165.00   165.00   165.00   165.00   165.00
 T, K             5120.00  5130.00  5140.00  5150.00  5160.00  5170.00  5180.00  5190.00
 RHO, KG/CU M    6.1293-1 6.1043-1 6.0795-1 6.0547-1 6.0301-1 6.0055-1 5.9811-1 5.9567-1
 H, KJ/KG        148527.7 149357.5 150190.1 151025.4 151863.3 152703.9 153547.2 154392.9
 U, KJ/KG        121607.8 122327.6 123049.7 123774.0 124500.6 125229.3 125960.2 126693.2
 G, KJ/KG       -387115.1-388162.0-389210.6-390260.9-391312.7-392366.2-393421.3-394478.1
 S, KJ/(KG)(K)   104.6177 104.7796 104.9418 105.1041 105.2667 105.4294 105.5924 105.7555

 M, (1/n)           1.581    1.578    1.575    1.571    1.568    1.565    1.561    1.558
 (dLV/dLP)t      -1.09964 -1.10024 -1.10085 -1.10144 -1.10204 -1.10262 -1.10321 -1.10378
 (dLV/dLT)p        2.0877   2.0922   2.0967   2.1011   2.1054   2.1096   2.1137   2.1178
 Cp, KJ/(KG)(K)   82.8422  83.1192  83.3927  83.6628  83.9292  84.1920  84.4510  84.7063
 GAMMAs            1.2151   1.2154   1.2158   1.2162   1.2166   1.2170   1.2174   1.2178
 SON VEL,M/SEC     5719.2   5731.8   5744.4   5757.0   5769.7   5782.4   5795.1   5807.9

 TRANSPORT PROPERTIES (GASES ONLY)
   CONDUCTIVITY IN UNITS OF MILLIWATTS/(CM)(K)

 VISC,MILLIPOISE  0.80946  0.81083  0.81220  0.81354  0.81488  0.81620  0.81751  0.81881

  WITH EQUILIBRIUM REACTIONS

 Cp, KJ/(KG)(K)   82.8422  83.1192  83.3927  83.6628  83.9292  84.1920  84.4510  84.7063
 CONDUCTIVITY    123.0487 123.4829 123.9100 124.3300 124.7428 125.1483 125.5463 125.9369
 PRANDTL NUMBER    0.5450   0.5458   0.5466   0.5474   0.5483   0.5491   0.5499   0.5507

  WITH FROZEN REACTIONS

 Cp, KJ/(KG)(K)   20.4072  20.4133  20.4193  20.4253  20.4312  20.4370  20.4428  20.4486
 CONDUCTIVITY     23.0408  23.0820  23.1227  23.1629  23.2026  23.2418  23.2804  23.3186
 PRANDTL NUMBER    0.7169   0.7171   0.7172   0.7174   0.7175   0.7177   0.7179   0.7180

 MOLE FRACTIONS

 *H               0.43109  0.43442  0.43776  0.44109  0.44442  0.44775  0.45108  0.45441
 *H2              0.56891  0.56558  0.56224  0.55891  0.55558  0.55225  0.54892  0.54559

  * THERMODYNAMIC PROPERTIES FITTED TO 20000.K

 NOTE. WEIGHT FRACTION OF FUEL IN TOTAL FUELS AND OF OXIDANT IN TOTAL OXIDANTS









               THERMODYNAMIC EQUILIBRIUM PROPERTIES AT ASSIGNED

                           TEMPERATURE AND PRESSURE

 CASE =                

             REACTANT                    WT FRACTION      ENERGY      TEMP
                                          (SEE NOTE)     KJ/KG-MOL      K  
             H2                           1.0000000         0.000      0.000

 O/F=    0.00000  %FUEL=100.000000  R,EQ.RATIO= 0.000000  PHI,EQ.RATIO= 0.000000

 THERMODYNAMIC PROPERTIES

 P, BAR            165.00   165.00   165.00   165.00   165.00   180.00   180.00   180.00
 T, K             5200.00  5210.00  5220.00  5230.00  5240.00  5100.00  5110.00  5120.00
 RHO, KG/CU M    5.9325-1 5.9083-1 5.8843-1 5.8603-1 5.8364-1 6.7985-1 6.7712-1 6.7440-1
 H, KJ/KG        155241.3 156092.1 156945.4 157801.1 158659.1 144413.3 145216.5 146022.6
 U, KJ/KG        127428.2 128165.3 128904.4 129645.5 130388.5 117936.7 118633.2 119332.1
 G, KJ/KG       -395536.4-396596.4-397658.1-398721.4-399786.3-382712.4-383746.8-384782.8
 S, KJ/(KG)(K)   105.9188 106.0822 106.2459 106.4096 106.5735 103.3580 103.5153 103.6729

 M, (1/n)           1.555    1.551    1.548    1.544    1.541    1.602    1.598    1.595
 (dLV/dLP)t      -1.10436 -1.10492 -1.10548 -1.10603 -1.10658 -1.09589 -1.09651 -1.09713
 (dLV/dLT)p        2.1218   2.1257   2.1296   2.1334   2.1371   2.0509   2.0556   2.0604
 Cp, KJ/(KG)(K)   84.9577  85.2053  85.4489  85.6884  85.9239  80.1816  80.4670  80.7495
 GAMMAs            1.2182   1.2186   1.2190   1.2194   1.2198   1.2142   1.2146   1.2150
 SON VEL,M/SEC     5820.7   5833.5   5846.4   5859.4   5872.3   5670.0   5682.2   5694.5

 TRANSPORT PROPERTIES (GASES ONLY)
   CONDUCTIVITY IN UNITS OF MILLIWATTS/(CM)(K)

 VISC,MILLIPOISE  0.82009  0.82136  0.82261  0.82386  0.82509  0.80630  0.80775  0.80918

  WITH EQUILIBRIUM REACTIONS

 Cp, KJ/(KG)(K)   84.9577  85.2053  85.4489  85.6884  85.9239  80.1816  80.4670  80.7495
 CONDUCTIVITY    126.3200 126.6955 127.0632 127.4232 127.7753 119.6310 120.0934 120.5494
 PRANDTL NUMBER    0.5516   0.5524   0.5532   0.5540   0.5548   0.5404   0.5412   0.5420

  WITH FROZEN REACTIONS

 Cp, KJ/(KG)(K)   20.4543  20.4599  20.4655  20.4710  20.4764  20.3915  20.3977  20.4039
 CONDUCTIVITY     23.3563  23.3935  23.4302  23.4664  23.5020  22.9700  23.0139  23.0573
 PRANDTL NUMBER    0.7182   0.7184   0.7185   0.7187   0.7189   0.7158   0.7159   0.7161

 MOLE FRACTIONS

 *H               0.45774  0.46107  0.46439  0.46771  0.47103  0.41105  0.41432  0.41760
 *H2              0.54226  0.53893  0.53561  0.53229  0.52897  0.58895  0.58568  0.58240

  * THERMODYNAMIC PROPERTIES FITTED TO 20000.K

 NOTE. WEIGHT FRACTION OF FUEL IN TOTAL FUELS AND OF OXIDANT IN TOTAL OXIDANTS









               THERMODYNAMIC EQUILIBRIUM PROPERTIES AT ASSIGNED

                           TEMPERATURE AND PRESSURE

 CASE =                

             REACTANT                    WT FRACTION      ENERGY      TEMP
                                          (SEE NOTE)     KJ/KG-MOL      K  
             H2                           1.0000000         0.000      0.000

 O/F=    0.00000  %FUEL=100.000000  R,EQ.RATIO= 0.000000  PHI,EQ.RATIO= 0.000000

 THERMODYNAMIC PROPERTIES

 P, BAR            180.00   180.00   180.00   180.00   180.00   180.00   180.00   180.00
 T, K             5130.00  5140.00  5150.00  5160.00  5170.00  5180.00  5190.00  5200.00
 RHO, KG/CU M    6.7169-1 6.6899-1 6.6630-1 6.6362-1 6.6096-1 6.5830-1 6.5565-1 6.5301-1
 H, KJ/KG        146831.5 147643.2 148457.6 149274.7 150094.6 150917.0 151742.1 152569.8
 U, KJ/KG        120033.4 120737.0 121442.8 122150.9 122861.3 123573.8 124288.5 125005.3
 G, KJ/KG       -385820.3-386859.4-387900.0-388942.3-389986.2-391031.6-392078.6-393127.2
 S, KJ/(KG)(K)   103.8308 103.9888 104.1471 104.3056 104.4644 104.6233 104.7824 104.9417

 M, (1/n)           1.592    1.588    1.585    1.582    1.578    1.575    1.572    1.569
 (dLV/dLP)t      -1.09775 -1.09836 -1.09896 -1.09957 -1.10017 -1.10076 -1.10135 -1.10193
 (dLV/dLT)p        2.0650   2.0696   2.0741   2.0786   2.0830   2.0873   2.0916   2.0958
 Cp, KJ/(KG)(K)   81.0289  81.3053  81.5785  81.8485  82.1152  82.3786  82.6386  82.8952
 GAMMAs            1.2153   1.2157   1.2160   1.2164   1.2168   1.2172   1.2176   1.2179
 SON VEL,M/SEC     5706.8   5719.2   5731.6   5744.0   5756.5   5769.0   5781.6   5794.1

 TRANSPORT PROPERTIES (GASES ONLY)
   CONDUCTIVITY IN UNITS OF MILLIWATTS/(CM)(K)

 VISC,MILLIPOISE  0.81061  0.81202  0.81342  0.81481  0.81618  0.81755  0.81890  0.82023

  WITH EQUILIBRIUM REACTIONS

 Cp, KJ/(KG)(K)   81.0289  81.3053  81.5785  81.8485  82.1152  82.3786  82.6386  82.8952
 CONDUCTIVITY    120.9991 121.4423 121.8790 122.3091 122.7324 123.1489 123.5586 123.9613
 PRANDTL NUMBER    0.5428   0.5436   0.5445   0.5453   0.5461   0.5469   0.5477   0.5485

  WITH FROZEN REACTIONS

 Cp, KJ/(KG)(K)   20.4101  20.4162  20.4222  20.4282  20.4341  20.4400  20.4458  20.4515
 CONDUCTIVITY     23.1002  23.1427  23.1846  23.2260  23.2670  23.3075  23.3474  23.3869
 PRANDTL NUMBER    0.7162   0.7164   0.7165   0.7167   0.7168   0.7170   0.7171   0.7173

 MOLE FRACTIONS

 *H               0.42088  0.42416  0.42744  0.43072  0.43400  0.43728  0.44056  0.44384
 *H2              0.57912  0.57584  0.57256  0.56928  0.56600  0.56272  0.55944  0.55616

  * THERMODYNAMIC PROPERTIES FITTED TO 20000.K

 NOTE. WEIGHT FRACTION OF FUEL IN TOTAL FUELS AND OF OXIDANT IN TOTAL OXIDANTS









               THERMODYNAMIC EQUILIBRIUM PROPERTIES AT ASSIGNED

                           TEMPERATURE AND PRESSURE

 CASE =                

             REACTANT                    WT FRACTION      ENERGY      TEMP
                                          (SEE NOTE)     KJ/KG-MOL      K  
             H2                           1.0000000         0.000      0.000

 O/F=    0.00000  %FUEL=100.000000  R,EQ.RATIO= 0.000000  PHI,EQ.RATIO= 0.000000

 THERMODYNAMIC PROPERTIES

 P, BAR            180.00   180.00   180.00   180.00   200.00   200.00   200.00   200.00
 T, K             5210.00  5220.00  5230.00  5240.00  5100.00  5110.00  5120.00  5130.00
 RHO, KG/CU M    6.5039-1 6.4777-1 6.4516-1 6.4257-1 7.6293-1 7.5992-1 7.5692-1 7.5393-1
 H, KJ/KG        153400.0 154232.7 155068.0 155905.6 141543.2 142321.4 143102.5 143886.5
 U, KJ/KG        125724.2 126445.1 127168.1 127893.1 115328.5 116002.8 116679.6 117358.7
 G, KJ/KG       -394177.5-395229.3-396282.7-397337.7-379936.8-380960.0-381984.8-383011.1
 S, KJ/(KG)(K)   105.1012 105.2609 105.4208 105.5808 102.2510 102.4034 102.5561 102.7091

 M, (1/n)           1.565    1.562    1.559    1.555    1.618    1.614    1.611    1.608
 (dLV/dLP)t      -1.10251 -1.10309 -1.10366 -1.10422 -1.09280 -1.09343 -1.09406 -1.09468
 (dLV/dLT)p        2.0999   2.1040   2.1079   2.1118   2.0171   2.0220   2.0268   2.0316
 Cp, KJ/(KG)(K)   83.1482  83.3977  83.6436  83.8858  77.6836  77.9692  78.2523  78.5327
 GAMMAs            1.2183   1.2187   1.2191   1.2195   1.2142   1.2145   1.2149   1.2152
 SON VEL,M/SEC     5806.7   5819.4   5832.1   5844.8   5641.8   5653.7   5665.7   5677.8

 TRANSPORT PROPERTIES (GASES ONLY)
   CONDUCTIVITY IN UNITS OF MILLIWATTS/(CM)(K)

 VISC,MILLIPOISE  0.82156  0.82287  0.82417  0.82546  0.80559  0.80709  0.80858  0.81006

  WITH EQUILIBRIUM REACTIONS

 Cp, KJ/(KG)(K)   83.1482  83.3977  83.6436  83.8858  77.6836  77.9692  78.2523  78.5327
 CONDUCTIVITY    124.3570 124.7456 125.1269 125.5011 116.5323 117.0085 117.4791 117.9441
 PRANDTL NUMBER    0.5493   0.5501   0.5509   0.5517   0.5370   0.5378   0.5386   0.5394

  WITH FROZEN REACTIONS

 Cp, KJ/(KG)(K)   20.4572  20.4628  20.4684  20.4739  20.3876  20.3939  20.4002  20.4064
 CONDUCTIVITY     23.4259  23.4644  23.5024  23.5400  22.9780  23.0239  23.0692  23.1141
 PRANDTL NUMBER    0.7174   0.7176   0.7178   0.7179   0.7148   0.7149   0.7150   0.7152

 MOLE FRACTIONS

 *H               0.44712  0.45039  0.45367  0.45695  0.39518  0.39838  0.40158  0.40479
 *H2              0.55288  0.54961  0.54633  0.54305  0.60482  0.60162  0.59842  0.59521

  * THERMODYNAMIC PROPERTIES FITTED TO 20000.K

 NOTE. WEIGHT FRACTION OF FUEL IN TOTAL FUELS AND OF OXIDANT IN TOTAL OXIDANTS









               THERMODYNAMIC EQUILIBRIUM PROPERTIES AT ASSIGNED

                           TEMPERATURE AND PRESSURE

 CASE =                

             REACTANT                    WT FRACTION      ENERGY      TEMP
                                          (SEE NOTE)     KJ/KG-MOL      K  
             H2                           1.0000000         0.000      0.000

 O/F=    0.00000  %FUEL=100.000000  R,EQ.RATIO= 0.000000  PHI,EQ.RATIO= 0.000000

 THERMODYNAMIC PROPERTIES

 P, BAR            200.00   200.00   200.00   200.00   200.00   200.00   200.00   200.00
 T, K             5140.00  5150.00  5160.00  5170.00  5180.00  5190.00  5200.00  5210.00
 RHO, KG/CU M    7.5095-1 7.4798-1 7.4502-1 7.4207-1 7.3913-1 7.3620-1 7.3329-1 7.3038-1
 H, KJ/KG        144673.2 145462.7 146254.9 147049.8 147847.4 148647.7 149450.5 150256.0
 U, KJ/KG        118040.1 118723.8 119409.8 120098.1 120788.6 121481.3 122176.2 122873.2
 G, KJ/KG       -384039.0-385068.4-386099.3-387131.8-388165.8-389201.3-390238.4-391277.1
 S, KJ/(KG)(K)   102.8623 103.0157 103.1694 103.3233 103.4775 103.6318 103.7863 103.9411

 M, (1/n)           1.605    1.601    1.598    1.595    1.592    1.588    1.585    1.582
 (dLV/dLP)t      -1.09530 -1.09592 -1.09653 -1.09714 -1.09774 -1.09834 -1.09894 -1.09953
 (dLV/dLT)p        2.0364   2.0411   2.0457   2.0502   2.0547   2.0592   2.0636   2.0679
 Cp, KJ/(KG)(K)   78.8104  79.0855  79.3577  79.6271  79.8936  80.1572  80.4177  80.6752
 GAMMAs            1.2156   1.2159   1.2163   1.2166   1.2170   1.2174   1.2177   1.2181
 SON VEL,M/SEC     5689.8   5702.0   5714.1   5726.3   5738.5   5750.8   5763.1   5775.4

 TRANSPORT PROPERTIES (GASES ONLY)
   CONDUCTIVITY IN UNITS OF MILLIWATTS/(CM)(K)

 VISC,MILLIPOISE  0.81153  0.81299  0.81443  0.81587  0.81729  0.81871  0.82011  0.82150

  WITH EQUILIBRIUM REACTIONS

 Cp, KJ/(KG)(K)   78.8104  79.0855  79.3577  79.6271  79.8936  80.1572  80.4177  80.6752
 CONDUCTIVITY    118.4032 118.8565 119.3038 119.7451 120.1803 120.6093 121.0320 121.4484
 PRANDTL NUMBER    0.5402   0.5410   0.5417   0.5425   0.5433   0.5441   0.5449   0.5457

  WITH FROZEN REACTIONS

 Cp, KJ/(KG)(K)   20.4125  20.4186  20.4247  20.4307  20.4366  20.4425  20.4483  20.4540
 CONDUCTIVITY     23.1585  23.2025  23.2459  23.2889  23.3314  23.3735  23.4151  23.4562
 PRANDTL NUMBER    0.7153   0.7154   0.7156   0.7157   0.7159   0.7160   0.7162   0.7164

 MOLE FRACTIONS

 *H               0.40800  0.41121  0.41442  0.41763  0.42085  0.42407  0.42728  0.43050
 *H2              0.59200  0.58879  0.58558  0.58236  0.57915  0.57593  0.57272  0.56950

  * THERMODYNAMIC PROPERTIES FITTED TO 20000.K

 NOTE. WEIGHT FRACTION OF FUEL IN TOTAL FUELS AND OF OXIDANT IN TOTAL OXIDANTS









               THERMODYNAMIC EQUILIBRIUM PROPERTIES AT ASSIGNED

                           TEMPERATURE AND PRESSURE

 CASE =                

             REACTANT                    WT FRACTION      ENERGY      TEMP
                                          (SEE NOTE)     KJ/KG-MOL      K  
             H2                           1.0000000         0.000      0.000

 O/F=    0.00000  %FUEL=100.000000  R,EQ.RATIO= 0.000000  PHI,EQ.RATIO= 0.000000

 THERMODYNAMIC PROPERTIES

 P, BAR            200.00   200.00   200.00   225.00   225.00   225.00   225.00   225.00
 T, K             5220.00  5230.00  5240.00  5100.00  5110.00  5120.00  5130.00  5140.00
 RHO, KG/CU M    7.2749-1 7.2461-1 7.2174-1 8.6755-1 8.6419-1 8.6084-1 8.5750-1 8.5418-1
 H, KJ/KG        151064.0 151874.6 152687.6 138477.8 139228.8 139982.5 140739.1 141498.5
 U, KJ/KG        123572.3 124273.5 124976.8 112542.8 113192.9 113845.3 114500.2 115157.3
 G, KJ/KG       -392317.2-393359.0-394402.3-376865.7-377876.9-378889.6-379903.8-380919.4
 S, KJ/(KG)(K)   104.0960 104.2512 104.4065 101.0477 101.1948 101.3422 101.4898 101.6377

 M, (1/n)           1.579    1.575    1.572    1.635    1.632    1.629    1.626    1.622
 (dLV/dLP)t      -1.10012 -1.10070 -1.10128 -1.08934 -1.08997 -1.09060 -1.09123 -1.09185
 (dLV/dLT)p        2.0721   2.0763   2.0805   1.9791   1.9841   1.9891   1.9940   1.9988
 Cp, KJ/(KG)(K)   80.9296  81.1808  81.4288  74.9532  75.2369  75.5185  75.7978  76.0749
 GAMMAs            1.2185   1.2189   1.2192   1.2142   1.2145   1.2148   1.2152   1.2155
 SON VEL,M/SEC     5787.8   5800.2   5812.6   5611.6   5623.3   5634.9   5646.7   5658.4

 TRANSPORT PROPERTIES (GASES ONLY)
   CONDUCTIVITY IN UNITS OF MILLIWATTS/(CM)(K)

 VISC,MILLIPOISE  0.82287  0.82424  0.82559  0.80450  0.80605  0.80760  0.80913  0.81066

  WITH EQUILIBRIUM REACTIONS

 Cp, KJ/(KG)(K)   80.9296  81.1808  81.4288  74.9532  75.2369  75.5185  75.7978  76.0749
 CONDUCTIVITY    121.8584 122.2619 122.6588 113.0409 113.5285 114.0113 114.4890 114.9617
 PRANDTL NUMBER    0.5465   0.5473   0.5481   0.5334   0.5342   0.5349   0.5357   0.5364

  WITH FROZEN REACTIONS

 Cp, KJ/(KG)(K)   20.4597  20.4654  20.4710  20.3835  20.3898  20.3962  20.4024  20.4086
 CONDUCTIVITY     23.4968  23.5370  23.5766  22.9772  23.0251  23.0725  23.1194  23.1659
 PRANDTL NUMBER    0.7165   0.7167   0.7168   0.7137   0.7138   0.7139   0.7140   0.7142

 MOLE FRACTIONS

 *H               0.43372  0.43693  0.44015  0.37787  0.38098  0.38410  0.38723  0.39035
 *H2              0.56628  0.56307  0.55985  0.62213  0.61901  0.61589  0.61277  0.60965

  * THERMODYNAMIC PROPERTIES FITTED TO 20000.K

 NOTE. WEIGHT FRACTION OF FUEL IN TOTAL FUELS AND OF OXIDANT IN TOTAL OXIDANTS









               THERMODYNAMIC EQUILIBRIUM PROPERTIES AT ASSIGNED

                           TEMPERATURE AND PRESSURE

 CASE =                

             REACTANT                    WT FRACTION      ENERGY      TEMP
                                          (SEE NOTE)     KJ/KG-MOL      K  
             H2                           1.0000000         0.000      0.000

 O/F=    0.00000  %FUEL=100.000000  R,EQ.RATIO= 0.000000  PHI,EQ.RATIO= 0.000000

 THERMODYNAMIC PROPERTIES

 P, BAR            225.00   225.00   225.00   225.00   225.00   225.00   225.00   225.00
 T, K             5150.00  5160.00  5170.00  5180.00  5190.00  5200.00  5210.00  5220.00
 RHO, KG/CU M    8.5086-1 8.4756-1 8.4426-1 8.4098-1 8.3771-1 8.3445-1 8.3121-1 8.2797-1
 H, KJ/KG        142260.6 143025.5 143793.0 144563.3 145336.2 146111.8 146890.0 147670.7
 U, KJ/KG        115816.8 116478.5 117142.6 117808.8 118477.3 119148.0 119820.9 120495.8
 G, KJ/KG       -381936.5-382955.1-383975.2-384996.8-386019.8-387044.4-388070.4-389098.0
 S, KJ/(KG)(K)   101.7859 101.9342 102.0828 102.2317 102.3807 102.5300 102.6795 102.8293

 M, (1/n)           1.619    1.616    1.613    1.610    1.607    1.603    1.600    1.597
 (dLV/dLP)t      -1.09247 -1.09309 -1.09370 -1.09431 -1.09492 -1.09553 -1.09613 -1.09672
 (dLV/dLT)p        2.0036   2.0084   2.0131   2.0178   2.0224   2.0269   2.0314   2.0358
 Cp, KJ/(KG)(K)   76.3497  76.6222  76.8922  77.1597  77.4248  77.6873  77.9471  78.2044
 GAMMAs            1.2158   1.2162   1.2165   1.2169   1.2172   1.2176   1.2179   1.2183
 SON VEL,M/SEC     5670.2   5682.1   5693.9   5705.8   5717.8   5729.8   5741.8   5753.8

 TRANSPORT PROPERTIES (GASES ONLY)
   CONDUCTIVITY IN UNITS OF MILLIWATTS/(CM)(K)

 VISC,MILLIPOISE  0.81217  0.81368  0.81517  0.81666  0.81813  0.81960  0.82105  0.82249

  WITH EQUILIBRIUM REACTIONS

 Cp, KJ/(KG)(K)   76.3497  76.6222  76.8922  77.1597  77.4248  77.6873  77.9471  78.2043
 CONDUCTIVITY    115.4292 115.8915 116.3485 116.8001 117.2462 117.6868 118.1217 118.5510
 PRANDTL NUMBER    0.5372   0.5380   0.5387   0.5395   0.5403   0.5410   0.5418   0.5426

  WITH FROZEN REACTIONS

 Cp, KJ/(KG)(K)   20.4148  20.4209  20.4270  20.4330  20.4389  20.4448  20.4506  20.4564
 CONDUCTIVITY     23.2120  23.2576  23.3027  23.3474  23.3916  23.4354  23.4788  23.5216
 PRANDTL NUMBER    0.7143   0.7144   0.7146   0.7147   0.7149   0.7150   0.7152   0.7153

 MOLE FRACTIONS

 *H               0.39348  0.39662  0.39975  0.40289  0.40603  0.40917  0.41231  0.41545
 *H2              0.60652  0.60338  0.60025  0.59711  0.59397  0.59083  0.58769  0.58455

  * THERMODYNAMIC PROPERTIES FITTED TO 20000.K

 NOTE. WEIGHT FRACTION OF FUEL IN TOTAL FUELS AND OF OXIDANT IN TOTAL OXIDANTS









               THERMODYNAMIC EQUILIBRIUM PROPERTIES AT ASSIGNED

                           TEMPERATURE AND PRESSURE

 CASE =                

             REACTANT                    WT FRACTION      ENERGY      TEMP
                                          (SEE NOTE)     KJ/KG-MOL      K  
             H2                           1.0000000         0.000      0.000

 O/F=    0.00000  %FUEL=100.000000  R,EQ.RATIO= 0.000000  PHI,EQ.RATIO= 0.000000

 THERMODYNAMIC PROPERTIES

 P, BAR            225.00   225.00   250.00   250.00   250.00   250.00   250.00   250.00
 T, K             5230.00  5240.00  5100.00  5110.00  5120.00  5130.00  5140.00  5150.00
 RHO, KG/CU M    8.2475-1 8.2154-1 9.7291-1 9.6920-1 9.6551-1 9.6183-1 9.5816-1 9.5450-1
 H, KJ/KG        148454.0 149239.9 135860.8 136587.9 137317.9 138050.6 138786.1 139524.3
 U, KJ/KG        121173.0 121852.2 110164.6 110793.5 111424.8 112058.4 112694.3 113332.5
 G, KJ/KG       -390127.0-391157.6-374145.9-375146.6-376148.7-377152.3-378157.3-379163.8
 S, KJ/(KG)(K)   102.9792 103.1293 100.0013 100.1437 100.2864 100.4294 100.5726 100.7161

 M, (1/n)           1.594    1.591    1.650    1.647    1.644    1.641    1.638    1.635
 (dLV/dLP)t      -1.09732 -1.09791 -1.08625 -1.08687 -1.08750 -1.08813 -1.08875 -1.08937
 (dLV/dLT)p        2.0402   2.0445   1.9452   1.9503   1.9553   1.9602   1.9651   1.9700
 Cp, KJ/(KG)(K)   78.4588  78.7106  72.5735  72.8540  73.1327  73.4095  73.6843  73.9571
 GAMMAs            1.2186   1.2190   1.2143   1.2146   1.2149   1.2152   1.2155   1.2158
 SON VEL,M/SEC     5765.9   5778.1   5585.9   5597.2   5608.6   5620.1   5631.6   5643.1

 TRANSPORT PROPERTIES (GASES ONLY)
   CONDUCTIVITY IN UNITS OF MILLIWATTS/(CM)(K)

 VISC,MILLIPOISE  0.82392  0.82534  0.80328  0.80488  0.80646  0.80804  0.80961  0.81117

  WITH EQUILIBRIUM REACTIONS

 Cp, KJ/(KG)(K)   78.4588  78.7106  72.5735  72.8540  73.1327  73.4094  73.6843  73.9571
 CONDUCTIVITY    118.9745 119.3921 109.9110 110.4055 110.8957 111.3814 111.8628 112.3395
 PRANDTL NUMBER    0.5433   0.5441   0.5304   0.5311   0.5318   0.5326   0.5333   0.5340

  WITH FROZEN REACTIONS

 Cp, KJ/(KG)(K)   20.4621  20.4678  20.3799  20.3864  20.3927  20.3991  20.4053  20.4115
 CONDUCTIVITY     23.5641  23.6060  22.9684  23.0179  23.0670  23.1156  23.1639  23.2117
 PRANDTL NUMBER    0.7155   0.7156   0.7128   0.7129   0.7130   0.7131   0.7132   0.7133

 MOLE FRACTIONS

 *H               0.41860  0.42174  0.36279  0.36583  0.36887  0.37192  0.37497  0.37802
 *H2              0.58140  0.57826  0.63720  0.63417  0.63113  0.62808  0.62503  0.62198

  * THERMODYNAMIC PROPERTIES FITTED TO 20000.K

 NOTE. WEIGHT FRACTION OF FUEL IN TOTAL FUELS AND OF OXIDANT IN TOTAL OXIDANTS









               THERMODYNAMIC EQUILIBRIUM PROPERTIES AT ASSIGNED

                           TEMPERATURE AND PRESSURE

 CASE =                

             REACTANT                    WT FRACTION      ENERGY      TEMP
                                          (SEE NOTE)     KJ/KG-MOL      K  
             H2                           1.0000000         0.000      0.000

 O/F=    0.00000  %FUEL=100.000000  R,EQ.RATIO= 0.000000  PHI,EQ.RATIO= 0.000000

 THERMODYNAMIC PROPERTIES

 P, BAR            250.00   250.00   250.00   250.00   250.00   250.00   250.00   250.00
 T, K             5160.00  5170.00  5180.00  5190.00  5200.00  5210.00  5220.00  5230.00
 RHO, KG/CU M    9.5086-1 9.4722-1 9.4360-1 9.3999-1 9.3640-1 9.3281-1 9.2924-1 9.2568-1
 H, KJ/KG        140265.2 141008.8 141755.1 142504.1 143255.7 144009.9 144766.7 145526.0
 U, KJ/KG        113973.1 114615.8 115260.9 115908.1 116557.6 117209.2 117863.0 118518.9
 G, KJ/KG       -380171.6-381181.0-382191.7-383203.9-384217.6-385232.7-386249.2-387267.2
 S, KJ/(KG)(K)   100.8599 101.0038 101.1480 101.2925 101.4372 101.5821 101.7272 101.8725

 M, (1/n)           1.632    1.629    1.626    1.623    1.619    1.616    1.613    1.610
 (dLV/dLP)t      -1.08999 -1.09061 -1.09122 -1.09183 -1.09244 -1.09305 -1.09365 -1.09425
 (dLV/dLT)p        1.9749   1.9796   1.9844   1.9891   1.9937   1.9983   2.0029   2.0074
 Cp, KJ/(KG)(K)   74.2280  74.4967  74.7634  75.0279  75.2901  75.5502  75.8079  76.0632
 GAMMAs            1.2161   1.2165   1.2168   1.2171   1.2175   1.2178   1.2182   1.2185
 SON VEL,M/SEC     5654.6   5666.2   5677.9   5689.5   5701.2   5713.0   5724.8   5736.6

 TRANSPORT PROPERTIES (GASES ONLY)
   CONDUCTIVITY IN UNITS OF MILLIWATTS/(CM)(K)

 VISC,MILLIPOISE  0.81273  0.81427  0.81580  0.81733  0.81884  0.82035  0.82184  0.82333

  WITH EQUILIBRIUM REACTIONS

 Cp, KJ/(KG)(K)   74.2280  74.4967  74.7634  75.0279  75.2901  75.5501  75.8079  76.0632
 CONDUCTIVITY    112.8116 113.2790 113.7417 114.1994 114.6522 115.1000 115.5428 115.9803
 PRANDTL NUMBER    0.5348   0.5355   0.5362   0.5370   0.5377   0.5385   0.5392   0.5400

  WITH FROZEN REACTIONS

 Cp, KJ/(KG)(K)   20.4177  20.4238  20.4299  20.4359  20.4418  20.4477  20.4536  20.4594
 CONDUCTIVITY     23.2590  23.3060  23.3525  23.3986  23.4442  23.4894  23.5342  23.5785
 PRANDTL NUMBER    0.7134   0.7136   0.7137   0.7138   0.7140   0.7141   0.7143   0.7144

 MOLE FRACTIONS

 *H               0.38108  0.38414  0.38720  0.39027  0.39334  0.39641  0.39948  0.40256
 *H2              0.61892  0.61586  0.61280  0.60973  0.60666  0.60359  0.60052  0.59744

  * THERMODYNAMIC PROPERTIES FITTED TO 20000.K

 NOTE. WEIGHT FRACTION OF FUEL IN TOTAL FUELS AND OF OXIDANT IN TOTAL OXIDANTS









               THERMODYNAMIC EQUILIBRIUM PROPERTIES AT ASSIGNED

                           TEMPERATURE AND PRESSURE

 CASE =                

             REACTANT                    WT FRACTION      ENERGY      TEMP
                                          (SEE NOTE)     KJ/KG-MOL      K  
             H2                           1.0000000         0.000      0.000

 O/F=    0.00000  %FUEL=100.000000  R,EQ.RATIO= 0.000000  PHI,EQ.RATIO= 0.000000

 THERMODYNAMIC PROPERTIES

 P, BAR            250.00
 T, K             5240.00
 RHO, KG/CU M    9.2213-1
 H, KJ/KG        146287.9
 U, KJ/KG        119176.9
 G, KJ/KG       -388286.7
 S, KJ/(KG)(K)   102.0181

 M, (1/n)           1.607
 (dLV/dLP)t      -1.09485
 (dLV/dLT)p        2.0118
 Cp, KJ/(KG)(K)   76.3162
 GAMMAs            1.2189
 SON VEL,M/SEC     5748.4

 TRANSPORT PROPERTIES (GASES ONLY)
   CONDUCTIVITY IN UNITS OF MILLIWATTS/(CM)(K)

 VISC,MILLIPOISE  0.82480

  WITH EQUILIBRIUM REACTIONS

 Cp, KJ/(KG)(K)   76.3162
 CONDUCTIVITY    116.4126
 PRANDTL NUMBER    0.5407

  WITH FROZEN REACTIONS

 Cp, KJ/(KG)(K)   20.4651
 CONDUCTIVITY     23.6224
 PRANDTL NUMBER    0.7146

 MOLE FRACTIONS

 *H               0.40564
 *H2              0.59436

  * THERMODYNAMIC PROPERTIES FITTED TO 20000.K

 NOTE. WEIGHT FRACTION OF FUEL IN TOTAL FUELS AND OF OXIDANT IN TOTAL OXIDANTS



  
