
 *******************************************************************************

         NASA-GLENN CHEMICAL EQUILIBRIUM PROGRAM CEA2, MAY 21, 2004
                   BY  BONNIE MCBRIDE AND SANFORD GORDON
      REFS: NASA RP-1311, PART I, 1994 AND NASA RP-1311, PART II, 1996

 *******************************************************************************



  prob tp ions
  p,bar= 0.0225,0.025,0.028,0.031,0.035,0.039,0.044,0.049,0.054,0.06,0.067,0.074,
 0.0825,0.091,0.1
  t,k= 450,455,460,465,470,475,480,485,490,495,500,505,510,515,520
  
  
  reac
  fuel H2                wt%=100.0000
  oxid H2                wt%=100.0000
  
  output short
  
  output massf
  
  output siunits
  
  output transport
  
 end





               THERMODYNAMIC EQUILIBRIUM PROPERTIES AT ASSIGNED

                           TEMPERATURE AND PRESSURE

 CASE =                

             REACTANT                    WT FRACTION      ENERGY      TEMP
                                          (SEE NOTE)     KJ/KG-MOL      K  
 FUEL        H2                           1.0000000         0.000      0.000
 OXIDANT     H2                           1.0000000         0.000      0.000

 O/F=    1.00000  %FUEL= 50.000000  R,EQ.RATIO= 0.000000  PHI,EQ.RATIO=-1.000000

 THERMODYNAMIC PROPERTIES

 P, BAR           0.02250  0.02250  0.02250  0.02250  0.02250  0.02250  0.02250  0.02250
 T, K              450.00   455.00   460.00   465.00   470.00   475.00   480.00   485.00
 RHO, KG/CU M    1.2123-3 1.1989-3 1.1859-3 1.1732-3 1.1607-3 1.1485-3 1.1365-3 1.1248-3
 H, KJ/KG         2192.80  2265.30  2337.81  2410.33  2482.85  2555.38  2627.91  2700.45
 U, KJ/KG          336.78   388.66   440.55   492.44   544.34   596.25   648.16   700.08
 G, KJ/KG        -36695.0 -37127.4 -37560.6 -37994.7 -38429.5 -38865.2 -39301.6 -39738.7
 S, KJ/(KG)(K)    86.4173  86.5774  86.7358  86.8925  87.0477  87.2012  87.3531  87.5034

 M, (1/n)           2.016    2.016    2.016    2.016    2.016    2.016    2.016    2.016
 (dLV/dLP)t      -1.00000 -1.00000 -1.00000 -0.99999 -0.99999 -0.99999 -0.99999 -0.99999
 (dLV/dLT)p        1.0000   1.0000   1.0000   1.0000   1.0000   1.0000   1.0000   1.0000
 Cp, KJ/(KG)(K)   14.5002  14.5015  14.5028  14.5040  14.5051  14.5062  14.5073  14.5083
 GAMMAs            1.3975   1.3975   1.3974   1.3974   1.3973   1.3973   1.3973   1.3972
 SON VEL,M/SEC     1610.5   1619.4   1628.3   1637.1   1645.8   1654.5   1663.2   1671.8

 TRANSPORT PROPERTIES (GASES ONLY)
   CONDUCTIVITY IN UNITS OF MILLIWATTS/(CM)(K)

 VISC,MILLIPOISE  0.08455  0.10879  0.11720  0.12004  0.12141  0.12242  0.12333  0.12421

  WITH EQUILIBRIUM REACTIONS

 Cp, KJ/(KG)(K)   14.5002  14.5015  14.5028  14.5040  14.5051  14.5062  14.5073  14.5083
 CONDUCTIVITY      1.0591   1.9030   2.3474   2.4981   2.5511   2.5782   2.5989   2.6179
 PRANDTL NUMBER    1.1576   0.8290   0.7241   0.6970   0.6904   0.6888   0.6884   0.6884

  WITH FROZEN REACTIONS

 Cp, KJ/(KG)(K)   14.5002  14.5015  14.5028  14.5040  14.5051  14.5062  14.5073  14.5083
 CONDUCTIVITY      1.0591   1.9030   2.3474   2.4981   2.5511   2.5782   2.5989   2.6179
 PRANDTL NUMBER    1.1576   0.8290   0.7241   0.6970   0.6904   0.6888   0.6884   0.6884

 MASS FRACTIONS

 *H2              1.00000  1.00000  1.00000  1.00000  1.00000  1.00000  1.00000  1.00000

  * THERMODYNAMIC PROPERTIES FITTED TO 20000.K

 NOTE. WEIGHT FRACTION OF FUEL IN TOTAL FUELS AND OF OXIDANT IN TOTAL OXIDANTS









               THERMODYNAMIC EQUILIBRIUM PROPERTIES AT ASSIGNED

                           TEMPERATURE AND PRESSURE

 CASE =                

             REACTANT                    WT FRACTION      ENERGY      TEMP
                                          (SEE NOTE)     KJ/KG-MOL      K  
 FUEL        H2                           1.0000000         0.000      0.000
 OXIDANT     H2                           1.0000000         0.000      0.000

 O/F=    1.00000  %FUEL= 50.000000  R,EQ.RATIO= 0.000000  PHI,EQ.RATIO=-1.000000

 THERMODYNAMIC PROPERTIES

 P, BAR           0.02250  0.02250  0.02250  0.02250  0.02250  0.02250  0.02250  0.02500
 T, K              490.00   495.00   500.00   505.00   510.00   515.00   520.00   450.00
 RHO, KG/CU M    1.1133-3 1.1021-3 1.0910-3 1.0802-3 1.0697-3 1.0593-3 1.0491-3 1.3470-3
 H, KJ/KG         2773.00  2845.55  2918.10  2990.66  3063.23  3135.80  3208.38  2192.80
 U, KJ/KG          752.00   803.93   855.86   907.80   959.74  1011.69  1063.65   336.78
 G, KJ/KG        -40176.6 -40615.2 -41054.6 -41494.7 -41935.5 -42377.0 -42819.2 -36499.4
 S, KJ/(KG)(K)    87.6522  87.7995  87.9454  88.0898  88.2328  88.3744  88.5146  85.9826

 M, (1/n)           2.016    2.016    2.016    2.016    2.016    2.016    2.016    2.016
 (dLV/dLP)t      -0.99999 -0.99999 -0.99999 -0.99999 -0.99999 -0.99999 -0.99999 -1.00000
 (dLV/dLT)p        1.0000   1.0000   1.0000   1.0000   1.0000   1.0000   1.0000   1.0000
 Cp, KJ/(KG)(K)   14.5094  14.5105  14.5115  14.5126  14.5138  14.5149  14.5161  14.5002
 GAMMAs            1.3972   1.3971   1.3971   1.3970   1.3970   1.3970   1.3969   1.3975
 SON VEL,M/SEC     1680.4   1688.9   1697.4   1705.8   1714.2   1722.6   1730.9   1610.5

 TRANSPORT PROPERTIES (GASES ONLY)
   CONDUCTIVITY IN UNITS OF MILLIWATTS/(CM)(K)

 VISC,MILLIPOISE  0.12509  0.12596  0.12683  0.12769  0.12856  0.12942  0.13028  0.10302

  WITH EQUILIBRIUM REACTIONS

 Cp, KJ/(KG)(K)   14.5094  14.5105  14.5115  14.5126  14.5138  14.5149  14.5161  14.5002
 CONDUCTIVITY      2.6365   2.6549   2.6732   2.6915   2.7098   2.7280   2.7462   1.6628
 PRANDTL NUMBER    0.6884   0.6884   0.6885   0.6885   0.6886   0.6886   0.6886   0.8984

  WITH FROZEN REACTIONS

 Cp, KJ/(KG)(K)   14.5094  14.5105  14.5115  14.5126  14.5138  14.5149  14.5161  14.5002
 CONDUCTIVITY      2.6365   2.6549   2.6732   2.6915   2.7098   2.7280   2.7462   1.6628
 PRANDTL NUMBER    0.6884   0.6884   0.6885   0.6885   0.6886   0.6886   0.6886   0.8984

 MASS FRACTIONS

 *H2              1.00000  1.00000  1.00000  1.00000  1.00000  1.00000  1.00000  1.00000

  * THERMODYNAMIC PROPERTIES FITTED TO 20000.K

 NOTE. WEIGHT FRACTION OF FUEL IN TOTAL FUELS AND OF OXIDANT IN TOTAL OXIDANTS









               THERMODYNAMIC EQUILIBRIUM PROPERTIES AT ASSIGNED

                           TEMPERATURE AND PRESSURE

 CASE =                

             REACTANT                    WT FRACTION      ENERGY      TEMP
                                          (SEE NOTE)     KJ/KG-MOL      K  
 FUEL        H2                           1.0000000         0.000      0.000
 OXIDANT     H2                           1.0000000         0.000      0.000

 O/F=    1.00000  %FUEL= 50.000000  R,EQ.RATIO= 0.000000  PHI,EQ.RATIO=-1.000000

 THERMODYNAMIC PROPERTIES

 P, BAR           0.02500  0.02500  0.02500  0.02500  0.02500  0.02500  0.02500  0.02500
 T, K              455.00   460.00   465.00   470.00   475.00   480.00   485.00   490.00
 RHO, KG/CU M    1.3322-3 1.3177-3 1.3035-3 1.2897-3 1.2761-3 1.2628-3 1.2498-3 1.2370-3
 H, KJ/KG         2265.30  2337.81  2410.33  2482.85  2555.38  2627.91  2700.45  2773.00
 U, KJ/KG          388.66   440.55   492.44   544.34   596.25   648.16   700.08   752.00
 G, KJ/KG        -36929.6 -37360.7 -37792.6 -38225.3 -38658.8 -39093.0 -39527.9 -39963.7
 S, KJ/(KG)(K)    86.1427  86.3012  86.4580  86.6131  86.7666  86.9185  87.0688  87.2177

 M, (1/n)           2.016    2.016    2.016    2.016    2.016    2.016    2.016    2.016
 (dLV/dLP)t      -1.00000 -0.99999 -0.99999 -0.99999 -0.99999 -0.99999 -0.99999 -0.99999
 (dLV/dLT)p        1.0000   1.0000   1.0000   1.0000   1.0000   1.0000   1.0000   1.0000
 Cp, KJ/(KG)(K)   14.5015  14.5028  14.5039  14.5051  14.5062  14.5073  14.5083  14.5094
 GAMMAs            1.3975   1.3974   1.3974   1.3973   1.3973   1.3973   1.3972   1.3972
 SON VEL,M/SEC     1619.4   1628.3   1637.1   1645.8   1654.5   1663.2   1671.8   1680.4

 TRANSPORT PROPERTIES (GASES ONLY)
   CONDUCTIVITY IN UNITS OF MILLIWATTS/(CM)(K)

 VISC,MILLIPOISE  0.11498  0.11883  0.12045  0.12152  0.12244  0.12333  0.12421  0.12509

  WITH EQUILIBRIUM REACTIONS

 Cp, KJ/(KG)(K)   14.5015  14.5028  14.5039  14.5051  14.5062  14.5073  14.5083  14.5094
 CONDUCTIVITY      2.2447   2.4569   2.5269   2.5584   2.5801   2.5994   2.6180   2.6365
 PRANDTL NUMBER    0.7428   0.7015   0.6914   0.6890   0.6884   0.6883   0.6883   0.6884

  WITH FROZEN REACTIONS

 Cp, KJ/(KG)(K)   14.5015  14.5028  14.5039  14.5051  14.5062  14.5073  14.5083  14.5094
 CONDUCTIVITY      2.2447   2.4569   2.5269   2.5584   2.5801   2.5994   2.6180   2.6365
 PRANDTL NUMBER    0.7428   0.7015   0.6914   0.6890   0.6884   0.6883   0.6883   0.6884

 MASS FRACTIONS

 *H2              1.00000  1.00000  1.00000  1.00000  1.00000  1.00000  1.00000  1.00000

  * THERMODYNAMIC PROPERTIES FITTED TO 20000.K

 NOTE. WEIGHT FRACTION OF FUEL IN TOTAL FUELS AND OF OXIDANT IN TOTAL OXIDANTS









               THERMODYNAMIC EQUILIBRIUM PROPERTIES AT ASSIGNED

                           TEMPERATURE AND PRESSURE

 CASE =                

             REACTANT                    WT FRACTION      ENERGY      TEMP
                                          (SEE NOTE)     KJ/KG-MOL      K  
 FUEL        H2                           1.0000000         0.000      0.000
 OXIDANT     H2                           1.0000000         0.000      0.000

 O/F=    1.00000  %FUEL= 50.000000  R,EQ.RATIO= 0.000000  PHI,EQ.RATIO=-1.000000

 THERMODYNAMIC PROPERTIES

 P, BAR           0.02500  0.02500  0.02500  0.02500  0.02500  0.02500  0.02800  0.02800
 T, K              495.00   500.00   505.00   510.00   515.00   520.00   450.00   455.00
 RHO, KG/CU M    1.2245-3 1.2123-3 1.2003-3 1.1885-3 1.1770-3 1.1656-3 1.5086-3 1.4920-3
 H, KJ/KG         2845.55  2918.10  2990.66  3063.23  3135.80  3208.38  2192.80  2265.30
 U, KJ/KG          803.93   855.86   907.80   959.74  1011.69  1063.65   336.78   388.66
 G, KJ/KG        -40400.1 -40837.3 -41275.2 -41713.8 -42153.2 -42593.2 -36289.0 -36717.0
 S, KJ/(KG)(K)    87.3650  87.5108  87.6552  87.7982  87.9398  88.0800  85.5151  85.6753

 M, (1/n)           2.016    2.016    2.016    2.016    2.016    2.016    2.016    2.016
 (dLV/dLP)t      -0.99999 -0.99999 -0.99999 -0.99999 -0.99999 -0.99999 -1.00000 -1.00000
 (dLV/dLT)p        1.0000   1.0000   1.0000   1.0000   1.0000   1.0000   1.0000   1.0000
 Cp, KJ/(KG)(K)   14.5105  14.5115  14.5126  14.5138  14.5149  14.5161  14.5002  14.5015
 GAMMAs            1.3971   1.3971   1.3970   1.3970   1.3970   1.3969   1.3975   1.3975
 SON VEL,M/SEC     1688.9   1697.4   1705.8   1714.2   1722.6   1730.9   1610.5   1619.4

 TRANSPORT PROPERTIES (GASES ONLY)
   CONDUCTIVITY IN UNITS OF MILLIWATTS/(CM)(K)

 VISC,MILLIPOISE  0.12596  0.12683  0.12769  0.12856  0.12942  0.13028  0.10302  0.11498

  WITH EQUILIBRIUM REACTIONS

 Cp, KJ/(KG)(K)   14.5105  14.5115  14.5126  14.5138  14.5149  14.5161  14.5002  14.5015
 CONDUCTIVITY      2.6549   2.6732   2.6915   2.7098   2.7280   2.7462   1.6628   2.2447
 PRANDTL NUMBER    0.6884   0.6885   0.6885   0.6886   0.6886   0.6886   0.8984   0.7428

  WITH FROZEN REACTIONS

 Cp, KJ/(KG)(K)   14.5105  14.5115  14.5126  14.5138  14.5149  14.5161  14.5002  14.5015
 CONDUCTIVITY      2.6549   2.6732   2.6915   2.7098   2.7280   2.7462   1.6628   2.2447
 PRANDTL NUMBER    0.6884   0.6885   0.6885   0.6886   0.6886   0.6886   0.8984   0.7428

 MASS FRACTIONS

 *H2              1.00000  1.00000  1.00000  1.00000  1.00000  1.00000  1.00000  1.00000

  * THERMODYNAMIC PROPERTIES FITTED TO 20000.K

 NOTE. WEIGHT FRACTION OF FUEL IN TOTAL FUELS AND OF OXIDANT IN TOTAL OXIDANTS









               THERMODYNAMIC EQUILIBRIUM PROPERTIES AT ASSIGNED

                           TEMPERATURE AND PRESSURE

 CASE =                

             REACTANT                    WT FRACTION      ENERGY      TEMP
                                          (SEE NOTE)     KJ/KG-MOL      K  
 FUEL        H2                           1.0000000         0.000      0.000
 OXIDANT     H2                           1.0000000         0.000      0.000

 O/F=    1.00000  %FUEL= 50.000000  R,EQ.RATIO= 0.000000  PHI,EQ.RATIO=-1.000000

 THERMODYNAMIC PROPERTIES

 P, BAR           0.02800  0.02800  0.02800  0.02800  0.02800  0.02800  0.02800  0.02800
 T, K              460.00   465.00   470.00   475.00   480.00   485.00   490.00   495.00
 RHO, KG/CU M    1.4758-3 1.4599-3 1.4444-3 1.4292-3 1.4143-3 1.3997-3 1.3855-3 1.3715-3
 H, KJ/KG         2337.81  2410.33  2482.85  2555.38  2627.91  2700.45  2773.00  2845.55
 U, KJ/KG          440.55   492.44   544.34   596.25   648.16   700.08   752.00   803.93
 G, KJ/KG        -37145.7 -37575.3 -38005.6 -38436.7 -38868.6 -39301.2 -39734.6 -40168.7
 S, KJ/(KG)(K)    85.8338  85.9905  86.1457  86.2992  86.4511  86.6014  86.7502  86.8975

 M, (1/n)           2.016    2.016    2.016    2.016    2.016    2.016    2.016    2.016
 (dLV/dLP)t      -0.99999 -0.99999 -0.99999 -0.99999 -0.99999 -0.99999 -0.99999 -0.99999
 (dLV/dLT)p        1.0000   1.0000   1.0000   1.0000   1.0000   1.0000   1.0000   1.0000
 Cp, KJ/(KG)(K)   14.5028  14.5039  14.5051  14.5062  14.5073  14.5083  14.5094  14.5105
 GAMMAs            1.3974   1.3974   1.3973   1.3973   1.3973   1.3972   1.3972   1.3971
 SON VEL,M/SEC     1628.3   1637.1   1645.8   1654.5   1663.2   1671.8   1680.4   1688.9

 TRANSPORT PROPERTIES (GASES ONLY)
   CONDUCTIVITY IN UNITS OF MILLIWATTS/(CM)(K)

 VISC,MILLIPOISE  0.11883  0.12045  0.12152  0.12244  0.12333  0.12421  0.12509  0.12596

  WITH EQUILIBRIUM REACTIONS

 Cp, KJ/(KG)(K)   14.5028  14.5039  14.5051  14.5062  14.5073  14.5083  14.5094  14.5105
 CONDUCTIVITY      2.4569   2.5269   2.5584   2.5801   2.5994   2.6180   2.6365   2.6549
 PRANDTL NUMBER    0.7015   0.6914   0.6890   0.6884   0.6883   0.6883   0.6884   0.6884

  WITH FROZEN REACTIONS

 Cp, KJ/(KG)(K)   14.5028  14.5039  14.5051  14.5062  14.5073  14.5083  14.5094  14.5105
 CONDUCTIVITY      2.4569   2.5269   2.5584   2.5801   2.5994   2.6180   2.6365   2.6549
 PRANDTL NUMBER    0.7015   0.6914   0.6890   0.6884   0.6883   0.6883   0.6884   0.6884

 MASS FRACTIONS

 *H2              1.00000  1.00000  1.00000  1.00000  1.00000  1.00000  1.00000  1.00000

  * THERMODYNAMIC PROPERTIES FITTED TO 20000.K

 NOTE. WEIGHT FRACTION OF FUEL IN TOTAL FUELS AND OF OXIDANT IN TOTAL OXIDANTS









               THERMODYNAMIC EQUILIBRIUM PROPERTIES AT ASSIGNED

                           TEMPERATURE AND PRESSURE

 CASE =                

             REACTANT                    WT FRACTION      ENERGY      TEMP
                                          (SEE NOTE)     KJ/KG-MOL      K  
 FUEL        H2                           1.0000000         0.000      0.000
 OXIDANT     H2                           1.0000000         0.000      0.000

 O/F=    1.00000  %FUEL= 50.000000  R,EQ.RATIO= 0.000000  PHI,EQ.RATIO=-1.000000

 THERMODYNAMIC PROPERTIES

 P, BAR           0.02800  0.02800  0.02800  0.02800  0.02800  0.03100  0.03100  0.03100
 T, K              500.00   505.00   510.00   515.00   520.00   450.00   455.00   460.00
 RHO, KG/CU M    1.3577-3 1.3443-3 1.3311-3 1.3182-3 1.3055-3 1.6702-3 1.6519-3 1.6339-3
 H, KJ/KG         2918.10  2990.66  3063.23  3135.80  3208.38  2192.80  2265.30  2337.81
 U, KJ/KG          855.86   907.80   959.74  1011.69  1063.65   336.78   388.66   440.55
 G, KJ/KG        -40603.6 -41039.2 -41475.5 -41912.5 -42350.2 -36100.1 -36525.9 -36952.6
 S, KJ/(KG)(K)    87.0434  87.1878  87.3308  87.4724  87.6126  85.0953  85.2555  85.4140

 M, (1/n)           2.016    2.016    2.016    2.016    2.016    2.016    2.016    2.016
 (dLV/dLP)t      -0.99999 -0.99999 -0.99999 -0.99999 -0.99999 -1.00000 -1.00000 -0.99999
 (dLV/dLT)p        1.0000   1.0000   1.0000   1.0000   1.0000   1.0000   1.0000   1.0000
 Cp, KJ/(KG)(K)   14.5115  14.5126  14.5138  14.5149  14.5161  14.5002  14.5015  14.5028
 GAMMAs            1.3971   1.3970   1.3970   1.3970   1.3969   1.3975   1.3975   1.3974
 SON VEL,M/SEC     1697.4   1705.8   1714.2   1722.6   1730.9   1610.5   1619.4   1628.3

 TRANSPORT PROPERTIES (GASES ONLY)
   CONDUCTIVITY IN UNITS OF MILLIWATTS/(CM)(K)

 VISC,MILLIPOISE  0.12683  0.12769  0.12856  0.12942  0.13028  0.10302  0.11498  0.11883

  WITH EQUILIBRIUM REACTIONS

 Cp, KJ/(KG)(K)   14.5115  14.5126  14.5138  14.5149  14.5161  14.5002  14.5015  14.5028
 CONDUCTIVITY      2.6732   2.6915   2.7098   2.7280   2.7462   1.6628   2.2447   2.4569
 PRANDTL NUMBER    0.6885   0.6885   0.6886   0.6886   0.6886   0.8984   0.7428   0.7015

  WITH FROZEN REACTIONS

 Cp, KJ/(KG)(K)   14.5115  14.5126  14.5138  14.5149  14.5161  14.5002  14.5015  14.5028
 CONDUCTIVITY      2.6732   2.6915   2.7098   2.7280   2.7462   1.6628   2.2447   2.4569
 PRANDTL NUMBER    0.6885   0.6885   0.6886   0.6886   0.6886   0.8984   0.7428   0.7015

 MASS FRACTIONS

 *H2              1.00000  1.00000  1.00000  1.00000  1.00000  1.00000  1.00000  1.00000

  * THERMODYNAMIC PROPERTIES FITTED TO 20000.K

 NOTE. WEIGHT FRACTION OF FUEL IN TOTAL FUELS AND OF OXIDANT IN TOTAL OXIDANTS









               THERMODYNAMIC EQUILIBRIUM PROPERTIES AT ASSIGNED

                           TEMPERATURE AND PRESSURE

 CASE =                

             REACTANT                    WT FRACTION      ENERGY      TEMP
                                          (SEE NOTE)     KJ/KG-MOL      K  
 FUEL        H2                           1.0000000         0.000      0.000
 OXIDANT     H2                           1.0000000         0.000      0.000

 O/F=    1.00000  %FUEL= 50.000000  R,EQ.RATIO= 0.000000  PHI,EQ.RATIO=-1.000000

 THERMODYNAMIC PROPERTIES

 P, BAR           0.03100  0.03100  0.03100  0.03100  0.03100  0.03100  0.03100  0.03100
 T, K              465.00   470.00   475.00   480.00   485.00   490.00   495.00   500.00
 RHO, KG/CU M    1.6164-3 1.5992-3 1.5823-3 1.5659-3 1.5497-3 1.5339-3 1.5184-3 1.5032-3
 H, KJ/KG         2410.33  2482.85  2555.38  2627.91  2700.45  2773.00  2845.55  2918.10
 U, KJ/KG          492.44   544.34   596.25   648.16   700.08   752.00   803.93   855.86
 G, KJ/KG        -37380.1 -37808.3 -38237.3 -38667.1 -39097.6 -39528.9 -39960.9 -40393.7
 S, KJ/(KG)(K)    85.5707  85.7259  85.8794  86.0313  86.1816  86.3304  86.4777  86.6236

 M, (1/n)           2.016    2.016    2.016    2.016    2.016    2.016    2.016    2.016
 (dLV/dLP)t      -0.99999 -0.99999 -0.99999 -0.99999 -0.99999 -0.99999 -0.99999 -0.99999
 (dLV/dLT)p        1.0000   1.0000   1.0000   1.0000   1.0000   1.0000   1.0000   1.0000
 Cp, KJ/(KG)(K)   14.5039  14.5051  14.5062  14.5073  14.5083  14.5094  14.5105  14.5115
 GAMMAs            1.3974   1.3973   1.3973   1.3973   1.3972   1.3972   1.3971   1.3971
 SON VEL,M/SEC     1637.1   1645.8   1654.5   1663.2   1671.8   1680.4   1688.9   1697.4

 TRANSPORT PROPERTIES (GASES ONLY)
   CONDUCTIVITY IN UNITS OF MILLIWATTS/(CM)(K)

 VISC,MILLIPOISE  0.12045  0.12152  0.12244  0.12333  0.12421  0.12509  0.12596  0.12683

  WITH EQUILIBRIUM REACTIONS

 Cp, KJ/(KG)(K)   14.5039  14.5051  14.5062  14.5073  14.5083  14.5094  14.5105  14.5115
 CONDUCTIVITY      2.5269   2.5584   2.5801   2.5994   2.6180   2.6365   2.6549   2.6732
 PRANDTL NUMBER    0.6914   0.6890   0.6884   0.6883   0.6883   0.6884   0.6884   0.6885

  WITH FROZEN REACTIONS

 Cp, KJ/(KG)(K)   14.5039  14.5051  14.5062  14.5073  14.5083  14.5094  14.5105  14.5115
 CONDUCTIVITY      2.5269   2.5584   2.5801   2.5994   2.6180   2.6365   2.6549   2.6732
 PRANDTL NUMBER    0.6914   0.6890   0.6884   0.6883   0.6883   0.6884   0.6884   0.6885

 MASS FRACTIONS

 *H2              1.00000  1.00000  1.00000  1.00000  1.00000  1.00000  1.00000  1.00000

  * THERMODYNAMIC PROPERTIES FITTED TO 20000.K

 NOTE. WEIGHT FRACTION OF FUEL IN TOTAL FUELS AND OF OXIDANT IN TOTAL OXIDANTS









               THERMODYNAMIC EQUILIBRIUM PROPERTIES AT ASSIGNED

                           TEMPERATURE AND PRESSURE

 CASE =                

             REACTANT                    WT FRACTION      ENERGY      TEMP
                                          (SEE NOTE)     KJ/KG-MOL      K  
 FUEL        H2                           1.0000000         0.000      0.000
 OXIDANT     H2                           1.0000000         0.000      0.000

 O/F=    1.00000  %FUEL= 50.000000  R,EQ.RATIO= 0.000000  PHI,EQ.RATIO=-1.000000

 THERMODYNAMIC PROPERTIES

 P, BAR           0.03100  0.03100  0.03100  0.03100  0.03500  0.03500  0.03500  0.03500
 T, K              505.00   510.00   515.00   520.00   450.00   455.00   460.00   465.00
 RHO, KG/CU M    1.4883-3 1.4737-3 1.4594-3 1.4454-3 1.8858-3 1.8650-3 1.8448-3 1.8249-3
 H, KJ/KG         2990.66  3063.23  3135.80  3208.38  2192.80  2265.30  2337.81  2410.33
 U, KJ/KG          907.80   959.74  1011.69  1063.65   336.78   388.66   440.55   492.44
 G, KJ/KG        -40827.2 -41261.4 -41696.3 -42131.9 -35874.8 -36298.2 -36722.4 -37147.3
 S, KJ/(KG)(K)    86.7680  86.9110  87.0526  87.1928  84.5948  84.7549  84.9134  85.0702

 M, (1/n)           2.016    2.016    2.016    2.016    2.016    2.016    2.016    2.016
 (dLV/dLP)t      -0.99999 -0.99999 -0.99999 -0.99999 -1.00000 -1.00000 -0.99999 -0.99999
 (dLV/dLT)p        1.0000   1.0000   1.0000   1.0000   1.0000   1.0000   1.0000   1.0000
 Cp, KJ/(KG)(K)   14.5126  14.5138  14.5149  14.5161  14.5002  14.5015  14.5028  14.5039
 GAMMAs            1.3970   1.3970   1.3970   1.3969   1.3975   1.3975   1.3974   1.3974
 SON VEL,M/SEC     1705.8   1714.2   1722.6   1730.9   1610.5   1619.4   1628.3   1637.1

 TRANSPORT PROPERTIES (GASES ONLY)
   CONDUCTIVITY IN UNITS OF MILLIWATTS/(CM)(K)

 VISC,MILLIPOISE  0.12769  0.12856  0.12942  0.13028  0.10302  0.11498  0.11883  0.12045

  WITH EQUILIBRIUM REACTIONS

 Cp, KJ/(KG)(K)   14.5126  14.5138  14.5149  14.5161  14.5002  14.5015  14.5028  14.5039
 CONDUCTIVITY      2.6915   2.7098   2.7280   2.7462   1.6628   2.2447   2.4569   2.5269
 PRANDTL NUMBER    0.6885   0.6886   0.6886   0.6886   0.8984   0.7428   0.7015   0.6914

  WITH FROZEN REACTIONS

 Cp, KJ/(KG)(K)   14.5126  14.5138  14.5149  14.5161  14.5002  14.5015  14.5028  14.5039
 CONDUCTIVITY      2.6915   2.7098   2.7280   2.7462   1.6628   2.2447   2.4569   2.5269
 PRANDTL NUMBER    0.6885   0.6886   0.6886   0.6886   0.8984   0.7428   0.7015   0.6914

 MASS FRACTIONS

 *H2              1.00000  1.00000  1.00000  1.00000  1.00000  1.00000  1.00000  1.00000

  * THERMODYNAMIC PROPERTIES FITTED TO 20000.K

 NOTE. WEIGHT FRACTION OF FUEL IN TOTAL FUELS AND OF OXIDANT IN TOTAL OXIDANTS









               THERMODYNAMIC EQUILIBRIUM PROPERTIES AT ASSIGNED

                           TEMPERATURE AND PRESSURE

 CASE =                

             REACTANT                    WT FRACTION      ENERGY      TEMP
                                          (SEE NOTE)     KJ/KG-MOL      K  
 FUEL        H2                           1.0000000         0.000      0.000
 OXIDANT     H2                           1.0000000         0.000      0.000

 O/F=    1.00000  %FUEL= 50.000000  R,EQ.RATIO= 0.000000  PHI,EQ.RATIO=-1.000000

 THERMODYNAMIC PROPERTIES

 P, BAR           0.03500  0.03500  0.03500  0.03500  0.03500  0.03500  0.03500  0.03500
 T, K              470.00   475.00   480.00   485.00   490.00   495.00   500.00   505.00
 RHO, KG/CU M    1.8055-3 1.7865-3 1.7679-3 1.7497-3 1.7318-3 1.7143-3 1.6972-3 1.6804-3
 H, KJ/KG         2482.85  2555.38  2627.91  2700.45  2773.00  2845.55  2918.10  2990.66
 U, KJ/KG          544.34   596.25   648.16   700.08   752.00   803.93   855.86   907.80
 G, KJ/KG        -37573.0 -37999.6 -38426.8 -38854.9 -39283.6 -39713.2 -40143.4 -40574.4
 S, KJ/(KG)(K)    85.2253  85.3788  85.5307  85.6811  85.8299  85.9772  86.1230  86.2674

 M, (1/n)           2.016    2.016    2.016    2.016    2.016    2.016    2.016    2.016
 (dLV/dLP)t      -0.99999 -0.99999 -0.99999 -0.99999 -0.99999 -0.99999 -0.99999 -0.99999
 (dLV/dLT)p        1.0000   1.0000   1.0000   1.0000   1.0000   1.0000   1.0000   1.0000
 Cp, KJ/(KG)(K)   14.5051  14.5062  14.5073  14.5083  14.5094  14.5105  14.5115  14.5126
 GAMMAs            1.3973   1.3973   1.3973   1.3972   1.3972   1.3971   1.3971   1.3970
 SON VEL,M/SEC     1645.8   1654.5   1663.2   1671.8   1680.4   1688.9   1697.4   1705.8

 TRANSPORT PROPERTIES (GASES ONLY)
   CONDUCTIVITY IN UNITS OF MILLIWATTS/(CM)(K)

 VISC,MILLIPOISE  0.12152  0.12244  0.12333  0.12421  0.12509  0.12596  0.12683  0.12769

  WITH EQUILIBRIUM REACTIONS

 Cp, KJ/(KG)(K)   14.5051  14.5062  14.5073  14.5083  14.5094  14.5105  14.5115  14.5126
 CONDUCTIVITY      2.5584   2.5801   2.5994   2.6180   2.6365   2.6549   2.6732   2.6915
 PRANDTL NUMBER    0.6890   0.6884   0.6883   0.6883   0.6884   0.6884   0.6885   0.6885

  WITH FROZEN REACTIONS

 Cp, KJ/(KG)(K)   14.5051  14.5062  14.5073  14.5083  14.5094  14.5105  14.5115  14.5126
 CONDUCTIVITY      2.5584   2.5801   2.5994   2.6180   2.6365   2.6549   2.6732   2.6915
 PRANDTL NUMBER    0.6890   0.6884   0.6883   0.6883   0.6884   0.6884   0.6885   0.6885

 MASS FRACTIONS

 *H2              1.00000  1.00000  1.00000  1.00000  1.00000  1.00000  1.00000  1.00000

  * THERMODYNAMIC PROPERTIES FITTED TO 20000.K

 NOTE. WEIGHT FRACTION OF FUEL IN TOTAL FUELS AND OF OXIDANT IN TOTAL OXIDANTS









               THERMODYNAMIC EQUILIBRIUM PROPERTIES AT ASSIGNED

                           TEMPERATURE AND PRESSURE

 CASE =                

             REACTANT                    WT FRACTION      ENERGY      TEMP
                                          (SEE NOTE)     KJ/KG-MOL      K  
 FUEL        H2                           1.0000000         0.000      0.000
 OXIDANT     H2                           1.0000000         0.000      0.000

 O/F=    1.00000  %FUEL= 50.000000  R,EQ.RATIO= 0.000000  PHI,EQ.RATIO=-1.000000

 THERMODYNAMIC PROPERTIES

 P, BAR           0.03500  0.03500  0.03500  0.03900  0.03900  0.03900  0.03900  0.03900
 T, K              510.00   515.00   520.00   450.00   455.00   460.00   465.00   470.00
 RHO, KG/CU M    1.6639-3 1.6477-3 1.6319-3 2.1013-3 2.0782-3 2.0556-3 2.0335-3 2.0119-3
 H, KJ/KG         3063.23  3135.80  3208.38  2192.80  2265.30  2337.81  2410.33  2482.85
 U, KJ/KG          959.74  1011.69  1063.65   336.78   388.66   440.55   492.44   544.34
 G, KJ/KG        -41006.1 -41438.5 -41871.6 -35674.0 -36095.1 -36517.0 -36939.8 -37363.3
 S, KJ/(KG)(K)    86.4104  86.5520  86.6923  84.1484  84.3086  84.4671  84.6239  84.7790

 M, (1/n)           2.016    2.016    2.016    2.016    2.016    2.016    2.016    2.016
 (dLV/dLP)t      -0.99999 -0.99999 -0.99999 -1.00000 -1.00000 -0.99999 -0.99999 -0.99999
 (dLV/dLT)p        1.0000   1.0000   1.0000   1.0000   1.0000   1.0000   1.0000   1.0000
 Cp, KJ/(KG)(K)   14.5138  14.5149  14.5161  14.5002  14.5015  14.5028  14.5039  14.5051
 GAMMAs            1.3970   1.3970   1.3969   1.3975   1.3975   1.3974   1.3974   1.3973
 SON VEL,M/SEC     1714.2   1722.6   1730.9   1610.5   1619.4   1628.3   1637.1   1645.8

 TRANSPORT PROPERTIES (GASES ONLY)
   CONDUCTIVITY IN UNITS OF MILLIWATTS/(CM)(K)

 VISC,MILLIPOISE  0.12856  0.12942  0.13028  0.10302  0.11498  0.11883  0.12045  0.12152

  WITH EQUILIBRIUM REACTIONS

 Cp, KJ/(KG)(K)   14.5138  14.5149  14.5161  14.5002  14.5015  14.5028  14.5039  14.5051
 CONDUCTIVITY      2.7098   2.7280   2.7462   1.6628   2.2447   2.4569   2.5269   2.5584
 PRANDTL NUMBER    0.6886   0.6886   0.6886   0.8984   0.7428   0.7015   0.6914   0.6890

  WITH FROZEN REACTIONS

 Cp, KJ/(KG)(K)   14.5138  14.5149  14.5161  14.5002  14.5015  14.5028  14.5039  14.5051
 CONDUCTIVITY      2.7098   2.7280   2.7462   1.6628   2.2447   2.4569   2.5269   2.5584
 PRANDTL NUMBER    0.6886   0.6886   0.6886   0.8984   0.7428   0.7015   0.6914   0.6890

 MASS FRACTIONS

 *H2              1.00000  1.00000  1.00000  1.00000  1.00000  1.00000  1.00000  1.00000

  * THERMODYNAMIC PROPERTIES FITTED TO 20000.K

 NOTE. WEIGHT FRACTION OF FUEL IN TOTAL FUELS AND OF OXIDANT IN TOTAL OXIDANTS









               THERMODYNAMIC EQUILIBRIUM PROPERTIES AT ASSIGNED

                           TEMPERATURE AND PRESSURE

 CASE =                

             REACTANT                    WT FRACTION      ENERGY      TEMP
                                          (SEE NOTE)     KJ/KG-MOL      K  
 FUEL        H2                           1.0000000         0.000      0.000
 OXIDANT     H2                           1.0000000         0.000      0.000

 O/F=    1.00000  %FUEL= 50.000000  R,EQ.RATIO= 0.000000  PHI,EQ.RATIO=-1.000000

 THERMODYNAMIC PROPERTIES

 P, BAR           0.03900  0.03900  0.03900  0.03900  0.03900  0.03900  0.03900  0.03900
 T, K              475.00   480.00   485.00   490.00   495.00   500.00   505.00   510.00
 RHO, KG/CU M    1.9907-3 1.9699-3 1.9496-3 1.9297-3 1.9102-3 1.8911-3 1.8724-3 1.8541-3
 H, KJ/KG         2555.38  2627.91  2700.45  2773.00  2845.55  2918.10  2990.66  3063.23
 U, KJ/KG          596.25   648.16   700.08   752.00   803.93   855.86   907.80   959.74
 G, KJ/KG        -37787.6 -38212.6 -38638.4 -39064.9 -39492.2 -39920.2 -40349.0 -40778.5
 S, KJ/(KG)(K)    84.9325  85.0844  85.2347  85.3835  85.5309  85.6767  85.8211  85.9641

 M, (1/n)           2.016    2.016    2.016    2.016    2.016    2.016    2.016    2.016
 (dLV/dLP)t      -0.99999 -0.99999 -0.99999 -0.99999 -0.99999 -0.99999 -0.99999 -0.99999
 (dLV/dLT)p        1.0000   1.0000   1.0000   1.0000   1.0000   1.0000   1.0000   1.0000
 Cp, KJ/(KG)(K)   14.5062  14.5073  14.5083  14.5094  14.5105  14.5115  14.5126  14.5138
 GAMMAs            1.3973   1.3973   1.3972   1.3972   1.3971   1.3971   1.3970   1.3970
 SON VEL,M/SEC     1654.5   1663.2   1671.8   1680.4   1688.9   1697.4   1705.8   1714.2

 TRANSPORT PROPERTIES (GASES ONLY)
   CONDUCTIVITY IN UNITS OF MILLIWATTS/(CM)(K)

 VISC,MILLIPOISE  0.12244  0.12333  0.12421  0.12509  0.12596  0.12683  0.12769  0.12856

  WITH EQUILIBRIUM REACTIONS

 Cp, KJ/(KG)(K)   14.5062  14.5073  14.5083  14.5094  14.5105  14.5115  14.5126  14.5138
 CONDUCTIVITY      2.5801   2.5994   2.6180   2.6365   2.6549   2.6732   2.6915   2.7098
 PRANDTL NUMBER    0.6884   0.6883   0.6883   0.6884   0.6884   0.6885   0.6885   0.6886

  WITH FROZEN REACTIONS

 Cp, KJ/(KG)(K)   14.5062  14.5073  14.5083  14.5094  14.5105  14.5115  14.5126  14.5138
 CONDUCTIVITY      2.5801   2.5994   2.6180   2.6365   2.6549   2.6732   2.6915   2.7098
 PRANDTL NUMBER    0.6884   0.6883   0.6883   0.6884   0.6884   0.6885   0.6885   0.6886

 MASS FRACTIONS

 *H2              1.00000  1.00000  1.00000  1.00000  1.00000  1.00000  1.00000  1.00000

  * THERMODYNAMIC PROPERTIES FITTED TO 20000.K

 NOTE. WEIGHT FRACTION OF FUEL IN TOTAL FUELS AND OF OXIDANT IN TOTAL OXIDANTS









               THERMODYNAMIC EQUILIBRIUM PROPERTIES AT ASSIGNED

                           TEMPERATURE AND PRESSURE

 CASE =                

             REACTANT                    WT FRACTION      ENERGY      TEMP
                                          (SEE NOTE)     KJ/KG-MOL      K  
 FUEL        H2                           1.0000000         0.000      0.000
 OXIDANT     H2                           1.0000000         0.000      0.000

 O/F=    1.00000  %FUEL= 50.000000  R,EQ.RATIO= 0.000000  PHI,EQ.RATIO=-1.000000

 THERMODYNAMIC PROPERTIES

 P, BAR           0.03900  0.03900  0.04400  0.04400  0.04400  0.04400  0.04400  0.04400
 T, K              515.00   520.00   450.00   455.00   460.00   465.00   470.00   475.00
 RHO, KG/CU M    1.8361-3 1.8184-3 2.3707-3 2.3446-3 2.3191-3 2.2942-3 2.2698-3 2.2459-3
 H, KJ/KG         3135.80  3208.38  2192.80  2265.30  2337.81  2410.33  2482.85  2555.38
 U, KJ/KG         1011.69  1063.65   336.78   388.66   440.55   492.44   544.34   596.25
 G, KJ/KG        -41208.6 -41639.5 -35450.1 -35868.7 -36288.2 -36708.4 -37129.4 -37551.2
 S, KJ/(KG)(K)    86.1057  86.2459  83.6509  83.8111  83.9695  84.1263  84.2815  84.4350

 M, (1/n)           2.016    2.016    2.016    2.016    2.016    2.016    2.016    2.016
 (dLV/dLP)t      -0.99999 -0.99999 -1.00000 -1.00000 -0.99999 -0.99999 -0.99999 -0.99999
 (dLV/dLT)p        1.0000   1.0000   1.0000   1.0000   1.0000   1.0000   1.0000   1.0000
 Cp, KJ/(KG)(K)   14.5149  14.5161  14.5002  14.5015  14.5028  14.5039  14.5051  14.5062
 GAMMAs            1.3970   1.3969   1.3975   1.3975   1.3974   1.3974   1.3973   1.3973
 SON VEL,M/SEC     1722.6   1730.9   1610.5   1619.4   1628.3   1637.1   1645.8   1654.5

 TRANSPORT PROPERTIES (GASES ONLY)
   CONDUCTIVITY IN UNITS OF MILLIWATTS/(CM)(K)

 VISC,MILLIPOISE  0.12942  0.13028  0.10302  0.11498  0.11883  0.12045  0.12152  0.12244

  WITH EQUILIBRIUM REACTIONS

 Cp, KJ/(KG)(K)   14.5149  14.5161  14.5002  14.5015  14.5028  14.5039  14.5051  14.5062
 CONDUCTIVITY      2.7280   2.7462   1.6628   2.2447   2.4569   2.5269   2.5584   2.5801
 PRANDTL NUMBER    0.6886   0.6886   0.8984   0.7428   0.7015   0.6914   0.6890   0.6884

  WITH FROZEN REACTIONS

 Cp, KJ/(KG)(K)   14.5149  14.5161  14.5002  14.5015  14.5028  14.5039  14.5051  14.5062
 CONDUCTIVITY      2.7280   2.7462   1.6628   2.2447   2.4569   2.5269   2.5584   2.5801
 PRANDTL NUMBER    0.6886   0.6886   0.8984   0.7428   0.7015   0.6914   0.6890   0.6884

 MASS FRACTIONS

 *H2              1.00000  1.00000  1.00000  1.00000  1.00000  1.00000  1.00000  1.00000

  * THERMODYNAMIC PROPERTIES FITTED TO 20000.K

 NOTE. WEIGHT FRACTION OF FUEL IN TOTAL FUELS AND OF OXIDANT IN TOTAL OXIDANTS









               THERMODYNAMIC EQUILIBRIUM PROPERTIES AT ASSIGNED

                           TEMPERATURE AND PRESSURE

 CASE =                

             REACTANT                    WT FRACTION      ENERGY      TEMP
                                          (SEE NOTE)     KJ/KG-MOL      K  
 FUEL        H2                           1.0000000         0.000      0.000
 OXIDANT     H2                           1.0000000         0.000      0.000

 O/F=    1.00000  %FUEL= 50.000000  R,EQ.RATIO= 0.000000  PHI,EQ.RATIO=-1.000000

 THERMODYNAMIC PROPERTIES

 P, BAR           0.04400  0.04400  0.04400  0.04400  0.04400  0.04400  0.04400  0.04400
 T, K              480.00   485.00   490.00   495.00   500.00   505.00   510.00   515.00
 RHO, KG/CU M    2.2225-3 2.1996-3 2.1771-3 2.1552-3 2.1336-3 2.1125-3 2.0918-3 2.0715-3
 H, KJ/KG         2627.91  2700.45  2773.00  2845.55  2918.10  2990.66  3063.23  3135.80
 U, KJ/KG          648.16   700.08   752.00   803.93   855.86   907.80   959.74  1011.69
 G, KJ/KG        -37973.8 -38397.1 -38821.1 -39245.9 -39671.5 -40097.7 -40524.7 -40952.4
 S, KJ/(KG)(K)    84.5869  84.7372  84.8860  85.0333  85.1792  85.3236  85.4666  85.6082

 M, (1/n)           2.016    2.016    2.016    2.016    2.016    2.016    2.016    2.016
 (dLV/dLP)t      -0.99999 -0.99999 -0.99999 -0.99999 -0.99999 -0.99999 -0.99999 -0.99999
 (dLV/dLT)p        1.0000   1.0000   1.0000   1.0000   1.0000   1.0000   1.0000   1.0000
 Cp, KJ/(KG)(K)   14.5073  14.5083  14.5094  14.5105  14.5115  14.5126  14.5138  14.5149
 GAMMAs            1.3973   1.3972   1.3972   1.3971   1.3971   1.3970   1.3970   1.3970
 SON VEL,M/SEC     1663.2   1671.8   1680.4   1688.9   1697.4   1705.8   1714.2   1722.6

 TRANSPORT PROPERTIES (GASES ONLY)
   CONDUCTIVITY IN UNITS OF MILLIWATTS/(CM)(K)

 VISC,MILLIPOISE  0.12333  0.12421  0.12509  0.12596  0.12683  0.12769  0.12856  0.12942

  WITH EQUILIBRIUM REACTIONS

 Cp, KJ/(KG)(K)   14.5073  14.5083  14.5094  14.5105  14.5115  14.5126  14.5138  14.5149
 CONDUCTIVITY      2.5994   2.6180   2.6365   2.6549   2.6732   2.6915   2.7098   2.7280
 PRANDTL NUMBER    0.6883   0.6883   0.6884   0.6884   0.6885   0.6885   0.6886   0.6886

  WITH FROZEN REACTIONS

 Cp, KJ/(KG)(K)   14.5073  14.5083  14.5094  14.5105  14.5115  14.5126  14.5138  14.5149
 CONDUCTIVITY      2.5994   2.6180   2.6365   2.6549   2.6732   2.6915   2.7098   2.7280
 PRANDTL NUMBER    0.6883   0.6883   0.6884   0.6884   0.6885   0.6885   0.6886   0.6886

 MASS FRACTIONS

 *H2              1.00000  1.00000  1.00000  1.00000  1.00000  1.00000  1.00000  1.00000

  * THERMODYNAMIC PROPERTIES FITTED TO 20000.K

 NOTE. WEIGHT FRACTION OF FUEL IN TOTAL FUELS AND OF OXIDANT IN TOTAL OXIDANTS









               THERMODYNAMIC EQUILIBRIUM PROPERTIES AT ASSIGNED

                           TEMPERATURE AND PRESSURE

 CASE =                

             REACTANT                    WT FRACTION      ENERGY      TEMP
                                          (SEE NOTE)     KJ/KG-MOL      K  
 FUEL        H2                           1.0000000         0.000      0.000
 OXIDANT     H2                           1.0000000         0.000      0.000

 O/F=    1.00000  %FUEL= 50.000000  R,EQ.RATIO= 0.000000  PHI,EQ.RATIO=-1.000000

 THERMODYNAMIC PROPERTIES

 P, BAR           0.04400  0.04900  0.04900  0.04900  0.04900  0.04900  0.04900  0.04900
 T, K              520.00   450.00   455.00   460.00   465.00   470.00   475.00   480.00
 RHO, KG/CU M    2.0515-3 2.6401-3 2.6110-3 2.5827-3 2.5549-3 2.5277-3 2.5011-3 2.4751-3
 H, KJ/KG         3208.38  2192.80  2265.30  2337.81  2410.33  2482.85  2555.38  2627.91
 U, KJ/KG         1063.65   336.78   388.66   440.55   492.44   544.34   596.25   648.16
 G, KJ/KG        -41380.8 -35250.3 -35666.8 -36084.0 -36502.0 -36920.8 -37340.4 -37760.7
 S, KJ/(KG)(K)    85.7484  83.2070  83.3672  83.5256  83.6824  83.8375  83.9910  84.1429

 M, (1/n)           2.016    2.016    2.016    2.016    2.016    2.016    2.016    2.016
 (dLV/dLP)t      -0.99999 -1.00000 -1.00000 -0.99999 -0.99999 -0.99999 -0.99999 -0.99999
 (dLV/dLT)p        1.0000   1.0000   1.0000   1.0000   1.0000   1.0000   1.0000   1.0000
 Cp, KJ/(KG)(K)   14.5161  14.5002  14.5015  14.5028  14.5039  14.5051  14.5062  14.5073
 GAMMAs            1.3969   1.3975   1.3975   1.3974   1.3974   1.3973   1.3973   1.3973
 SON VEL,M/SEC     1730.9   1610.5   1619.4   1628.3   1637.1   1645.8   1654.5   1663.2

 TRANSPORT PROPERTIES (GASES ONLY)
   CONDUCTIVITY IN UNITS OF MILLIWATTS/(CM)(K)

 VISC,MILLIPOISE  0.13028  0.10302  0.11498  0.11883  0.12045  0.12152  0.12244  0.12333

  WITH EQUILIBRIUM REACTIONS

 Cp, KJ/(KG)(K)   14.5161  14.5002  14.5015  14.5028  14.5039  14.5051  14.5062  14.5073
 CONDUCTIVITY      2.7462   1.6628   2.2447   2.4569   2.5269   2.5584   2.5801   2.5994
 PRANDTL NUMBER    0.6886   0.8984   0.7428   0.7015   0.6914   0.6890   0.6884   0.6883

  WITH FROZEN REACTIONS

 Cp, KJ/(KG)(K)   14.5161  14.5002  14.5015  14.5028  14.5039  14.5051  14.5062  14.5073
 CONDUCTIVITY      2.7462   1.6628   2.2447   2.4569   2.5269   2.5584   2.5801   2.5994
 PRANDTL NUMBER    0.6886   0.8984   0.7428   0.7015   0.6914   0.6890   0.6884   0.6883

 MASS FRACTIONS

 *H2              1.00000  1.00000  1.00000  1.00000  1.00000  1.00000  1.00000  1.00000

  * THERMODYNAMIC PROPERTIES FITTED TO 20000.K

 NOTE. WEIGHT FRACTION OF FUEL IN TOTAL FUELS AND OF OXIDANT IN TOTAL OXIDANTS









               THERMODYNAMIC EQUILIBRIUM PROPERTIES AT ASSIGNED

                           TEMPERATURE AND PRESSURE

 CASE =                

             REACTANT                    WT FRACTION      ENERGY      TEMP
                                          (SEE NOTE)     KJ/KG-MOL      K  
 FUEL        H2                           1.0000000         0.000      0.000
 OXIDANT     H2                           1.0000000         0.000      0.000

 O/F=    1.00000  %FUEL= 50.000000  R,EQ.RATIO= 0.000000  PHI,EQ.RATIO=-1.000000

 THERMODYNAMIC PROPERTIES

 P, BAR           0.04900  0.04900  0.04900  0.04900  0.04900  0.04900  0.04900  0.04900
 T, K              485.00   490.00   495.00   500.00   505.00   510.00   515.00   520.00
 RHO, KG/CU M    2.4495-3 2.4245-3 2.4001-3 2.3761-3 2.3525-3 2.3295-3 2.3068-3 2.2847-3
 H, KJ/KG         2700.45  2773.00  2845.55  2918.10  2990.66  3063.23  3135.80  3208.38
 U, KJ/KG          700.08   752.00   803.93   855.86   907.80   959.74  1011.69  1063.65
 G, KJ/KG        -38181.8 -38603.6 -39026.2 -39449.5 -39873.6 -40298.3 -40723.8 -41150.0
 S, KJ/(KG)(K)    84.2933  84.4421  84.5894  84.7352  84.8796  85.0226  85.1642  85.3045

 M, (1/n)           2.016    2.016    2.016    2.016    2.016    2.016    2.016    2.016
 (dLV/dLP)t      -0.99999 -0.99999 -0.99999 -0.99999 -0.99999 -0.99999 -0.99999 -0.99999
 (dLV/dLT)p        1.0000   1.0000   1.0000   1.0000   1.0000   1.0000   1.0000   1.0000
 Cp, KJ/(KG)(K)   14.5083  14.5094  14.5105  14.5115  14.5126  14.5138  14.5149  14.5161
 GAMMAs            1.3972   1.3972   1.3971   1.3971   1.3970   1.3970   1.3970   1.3969
 SON VEL,M/SEC     1671.8   1680.4   1688.9   1697.4   1705.8   1714.2   1722.6   1730.9

 TRANSPORT PROPERTIES (GASES ONLY)
   CONDUCTIVITY IN UNITS OF MILLIWATTS/(CM)(K)

 VISC,MILLIPOISE  0.12421  0.12509  0.12596  0.12683  0.12769  0.12856  0.12942  0.13028

  WITH EQUILIBRIUM REACTIONS

 Cp, KJ/(KG)(K)   14.5083  14.5094  14.5105  14.5115  14.5126  14.5138  14.5149  14.5161
 CONDUCTIVITY      2.6180   2.6365   2.6549   2.6732   2.6915   2.7098   2.7280   2.7462
 PRANDTL NUMBER    0.6883   0.6884   0.6884   0.6885   0.6885   0.6886   0.6886   0.6886

  WITH FROZEN REACTIONS

 Cp, KJ/(KG)(K)   14.5083  14.5094  14.5105  14.5115  14.5126  14.5138  14.5149  14.5161
 CONDUCTIVITY      2.6180   2.6365   2.6549   2.6732   2.6915   2.7098   2.7280   2.7462
 PRANDTL NUMBER    0.6883   0.6884   0.6884   0.6885   0.6885   0.6886   0.6886   0.6886

 MASS FRACTIONS

 *H2              1.00000  1.00000  1.00000  1.00000  1.00000  1.00000  1.00000  1.00000

  * THERMODYNAMIC PROPERTIES FITTED TO 20000.K

 NOTE. WEIGHT FRACTION OF FUEL IN TOTAL FUELS AND OF OXIDANT IN TOTAL OXIDANTS









               THERMODYNAMIC EQUILIBRIUM PROPERTIES AT ASSIGNED

                           TEMPERATURE AND PRESSURE

 CASE =                

             REACTANT                    WT FRACTION      ENERGY      TEMP
                                          (SEE NOTE)     KJ/KG-MOL      K  
 FUEL        H2                           1.0000000         0.000      0.000
 OXIDANT     H2                           1.0000000         0.000      0.000

 O/F=    1.00000  %FUEL= 50.000000  R,EQ.RATIO= 0.000000  PHI,EQ.RATIO=-1.000000

 THERMODYNAMIC PROPERTIES

 P, BAR           0.05400  0.05400  0.05400  0.05400  0.05400  0.05400  0.05400  0.05400
 T, K              450.00   455.00   460.00   465.00   470.00   475.00   480.00   485.00
 RHO, KG/CU M    2.9094-3 2.8775-3 2.8462-3 2.8156-3 2.7856-3 2.7563-3 2.7276-3 2.6995-3
 H, KJ/KG         2192.80  2265.30  2337.81  2410.33  2482.85  2555.38  2627.91  2700.45
 U, KJ/KG          336.78   388.66   440.55   492.44   544.34   596.25   648.16   700.08
 G, KJ/KG        -35070.0 -35484.4 -35899.6 -36315.6 -36732.4 -37150.0 -37568.3 -37987.4
 S, KJ/(KG)(K)    82.8062  82.9664  83.1249  83.2817  83.4368  83.5903  83.7422  83.8925

 M, (1/n)           2.016    2.016    2.016    2.016    2.016    2.016    2.016    2.016
 (dLV/dLP)t      -1.00000 -1.00000 -0.99999 -0.99999 -0.99999 -0.99999 -0.99999 -0.99999
 (dLV/dLT)p        1.0000   1.0000   1.0000   1.0000   1.0000   1.0000   1.0000   1.0000
 Cp, KJ/(KG)(K)   14.5002  14.5015  14.5028  14.5039  14.5051  14.5062  14.5073  14.5083
 GAMMAs            1.3975   1.3975   1.3974   1.3974   1.3973   1.3973   1.3973   1.3972
 SON VEL,M/SEC     1610.5   1619.4   1628.3   1637.1   1645.8   1654.5   1663.2   1671.8

 TRANSPORT PROPERTIES (GASES ONLY)
   CONDUCTIVITY IN UNITS OF MILLIWATTS/(CM)(K)

 VISC,MILLIPOISE  0.10302  0.11498  0.11883  0.12045  0.12152  0.12244  0.12333  0.12421

  WITH EQUILIBRIUM REACTIONS

 Cp, KJ/(KG)(K)   14.5002  14.5015  14.5028  14.5039  14.5051  14.5062  14.5073  14.5083
 CONDUCTIVITY      1.6628   2.2447   2.4569   2.5269   2.5584   2.5801   2.5994   2.6180
 PRANDTL NUMBER    0.8984   0.7428   0.7015   0.6914   0.6890   0.6884   0.6883   0.6883

  WITH FROZEN REACTIONS

 Cp, KJ/(KG)(K)   14.5002  14.5015  14.5028  14.5039  14.5051  14.5062  14.5073  14.5083
 CONDUCTIVITY      1.6628   2.2447   2.4569   2.5269   2.5584   2.5801   2.5994   2.6180
 PRANDTL NUMBER    0.8984   0.7428   0.7015   0.6914   0.6890   0.6884   0.6883   0.6883

 MASS FRACTIONS

 *H2              1.00000  1.00000  1.00000  1.00000  1.00000  1.00000  1.00000  1.00000

  * THERMODYNAMIC PROPERTIES FITTED TO 20000.K

 NOTE. WEIGHT FRACTION OF FUEL IN TOTAL FUELS AND OF OXIDANT IN TOTAL OXIDANTS









               THERMODYNAMIC EQUILIBRIUM PROPERTIES AT ASSIGNED

                           TEMPERATURE AND PRESSURE

 CASE =                

             REACTANT                    WT FRACTION      ENERGY      TEMP
                                          (SEE NOTE)     KJ/KG-MOL      K  
 FUEL        H2                           1.0000000         0.000      0.000
 OXIDANT     H2                           1.0000000         0.000      0.000

 O/F=    1.00000  %FUEL= 50.000000  R,EQ.RATIO= 0.000000  PHI,EQ.RATIO=-1.000000

 THERMODYNAMIC PROPERTIES

 P, BAR           0.05400  0.05400  0.05400  0.05400  0.05400  0.05400  0.05400  0.06000
 T, K              490.00   495.00   500.00   505.00   510.00   515.00   520.00   450.00
 RHO, KG/CU M    2.6719-3 2.6450-3 2.6185-3 2.5926-3 2.5672-3 2.5422-3 2.5178-3 3.2327-3
 H, KJ/KG         2773.00  2845.55  2918.10  2990.66  3063.23  3135.80  3208.38  2192.80
 U, KJ/KG          752.00   803.93   855.86   907.80   959.74  1011.69  1063.65   336.78
 G, KJ/KG        -38407.3 -38827.8 -39249.1 -39671.2 -40093.9 -40517.4 -40941.6 -34874.5
 S, KJ/(KG)(K)    84.0413  84.1886  84.3345  84.4789  84.6219  84.7635  84.9037  82.3717

 M, (1/n)           2.016    2.016    2.016    2.016    2.016    2.016    2.016    2.016
 (dLV/dLP)t      -0.99999 -0.99999 -0.99999 -0.99999 -0.99999 -0.99999 -0.99999 -1.00000
 (dLV/dLT)p        1.0000   1.0000   1.0000   1.0000   1.0000   1.0000   1.0000   1.0000
 Cp, KJ/(KG)(K)   14.5094  14.5105  14.5115  14.5126  14.5138  14.5149  14.5161  14.5002
 GAMMAs            1.3972   1.3971   1.3971   1.3970   1.3970   1.3970   1.3969   1.3975
 SON VEL,M/SEC     1680.4   1688.9   1697.4   1705.8   1714.2   1722.6   1730.9   1610.5

 TRANSPORT PROPERTIES (GASES ONLY)
   CONDUCTIVITY IN UNITS OF MILLIWATTS/(CM)(K)

 VISC,MILLIPOISE  0.12509  0.12596  0.12683  0.12769  0.12856  0.12942  0.13028  0.10302

  WITH EQUILIBRIUM REACTIONS

 Cp, KJ/(KG)(K)   14.5094  14.5105  14.5115  14.5126  14.5138  14.5149  14.5161  14.5002
 CONDUCTIVITY      2.6365   2.6549   2.6732   2.6915   2.7098   2.7280   2.7462   1.6628
 PRANDTL NUMBER    0.6884   0.6884   0.6885   0.6885   0.6886   0.6886   0.6886   0.8984

  WITH FROZEN REACTIONS

 Cp, KJ/(KG)(K)   14.5094  14.5105  14.5115  14.5126  14.5138  14.5149  14.5161  14.5002
 CONDUCTIVITY      2.6365   2.6549   2.6732   2.6915   2.7098   2.7280   2.7462   1.6628
 PRANDTL NUMBER    0.6884   0.6884   0.6885   0.6885   0.6886   0.6886   0.6886   0.8984

 MASS FRACTIONS

 *H2              1.00000  1.00000  1.00000  1.00000  1.00000  1.00000  1.00000  1.00000

  * THERMODYNAMIC PROPERTIES FITTED TO 20000.K

 NOTE. WEIGHT FRACTION OF FUEL IN TOTAL FUELS AND OF OXIDANT IN TOTAL OXIDANTS









               THERMODYNAMIC EQUILIBRIUM PROPERTIES AT ASSIGNED

                           TEMPERATURE AND PRESSURE

 CASE =                

             REACTANT                    WT FRACTION      ENERGY      TEMP
                                          (SEE NOTE)     KJ/KG-MOL      K  
 FUEL        H2                           1.0000000         0.000      0.000
 OXIDANT     H2                           1.0000000         0.000      0.000

 O/F=    1.00000  %FUEL= 50.000000  R,EQ.RATIO= 0.000000  PHI,EQ.RATIO=-1.000000

 THERMODYNAMIC PROPERTIES

 P, BAR           0.06000  0.06000  0.06000  0.06000  0.06000  0.06000  0.06000  0.06000
 T, K              455.00   460.00   465.00   470.00   475.00   480.00   485.00   490.00
 RHO, KG/CU M    3.1972-3 3.1624-3 3.1284-3 3.0952-3 3.0626-3 3.0307-3 2.9994-3 2.9688-3
 H, KJ/KG         2265.30  2337.81  2410.33  2482.85  2555.38  2627.91  2700.45  2773.00
 U, KJ/KG          388.66   440.55   492.44   544.34   596.25   648.16   700.08   752.00
 G, KJ/KG        -35286.7 -35699.7 -36113.6 -36528.2 -36943.6 -37359.7 -37776.7 -38194.3
 S, KJ/(KG)(K)    82.5318  82.6903  82.8471  83.0022  83.1557  83.3076  83.4580  83.6068

 M, (1/n)           2.016    2.016    2.016    2.016    2.016    2.016    2.016    2.016
 (dLV/dLP)t      -1.00000 -0.99999 -0.99999 -0.99999 -0.99999 -0.99999 -0.99999 -0.99999
 (dLV/dLT)p        1.0000   1.0000   1.0000   1.0000   1.0000   1.0000   1.0000   1.0000
 Cp, KJ/(KG)(K)   14.5015  14.5028  14.5039  14.5051  14.5062  14.5073  14.5083  14.5094
 GAMMAs            1.3975   1.3974   1.3974   1.3973   1.3973   1.3973   1.3972   1.3972
 SON VEL,M/SEC     1619.4   1628.3   1637.1   1645.8   1654.5   1663.2   1671.8   1680.4

 TRANSPORT PROPERTIES (GASES ONLY)
   CONDUCTIVITY IN UNITS OF MILLIWATTS/(CM)(K)

 VISC,MILLIPOISE  0.11498  0.11883  0.12045  0.12152  0.12244  0.12333  0.12421  0.12509

  WITH EQUILIBRIUM REACTIONS

 Cp, KJ/(KG)(K)   14.5015  14.5028  14.5039  14.5051  14.5062  14.5073  14.5083  14.5094
 CONDUCTIVITY      2.2447   2.4569   2.5269   2.5584   2.5801   2.5994   2.6180   2.6365
 PRANDTL NUMBER    0.7428   0.7015   0.6914   0.6890   0.6884   0.6883   0.6883   0.6884

  WITH FROZEN REACTIONS

 Cp, KJ/(KG)(K)   14.5015  14.5028  14.5039  14.5051  14.5062  14.5073  14.5083  14.5094
 CONDUCTIVITY      2.2447   2.4569   2.5269   2.5584   2.5801   2.5994   2.6180   2.6365
 PRANDTL NUMBER    0.7428   0.7015   0.6914   0.6890   0.6884   0.6883   0.6883   0.6884

 MASS FRACTIONS

 *H2              1.00000  1.00000  1.00000  1.00000  1.00000  1.00000  1.00000  1.00000

  * THERMODYNAMIC PROPERTIES FITTED TO 20000.K

 NOTE. WEIGHT FRACTION OF FUEL IN TOTAL FUELS AND OF OXIDANT IN TOTAL OXIDANTS









               THERMODYNAMIC EQUILIBRIUM PROPERTIES AT ASSIGNED

                           TEMPERATURE AND PRESSURE

 CASE =                

             REACTANT                    WT FRACTION      ENERGY      TEMP
                                          (SEE NOTE)     KJ/KG-MOL      K  
 FUEL        H2                           1.0000000         0.000      0.000
 OXIDANT     H2                           1.0000000         0.000      0.000

 O/F=    1.00000  %FUEL= 50.000000  R,EQ.RATIO= 0.000000  PHI,EQ.RATIO=-1.000000

 THERMODYNAMIC PROPERTIES

 P, BAR           0.06000  0.06000  0.06000  0.06000  0.06000  0.06000  0.06700  0.06700
 T, K              495.00   500.00   505.00   510.00   515.00   520.00   450.00   455.00
 RHO, KG/CU M    2.9388-3 2.9095-3 2.8806-3 2.8524-3 2.8247-3 2.7976-3 3.6099-3 3.5702-3
 H, KJ/KG         2845.55  2918.10  2990.66  3063.23  3135.80  3208.38  2192.80  2265.30
 U, KJ/KG          803.93   855.86   907.80   959.74  1011.69  1063.65   336.78   388.66
 G, KJ/KG        -38612.7 -39031.9 -39451.7 -39872.3 -40293.6 -40715.6 -34669.6 -35079.6
 S, KJ/(KG)(K)    83.7541  83.8999  84.0443  84.1873  84.3289  84.4692  81.9165  82.0767

 M, (1/n)           2.016    2.016    2.016    2.016    2.016    2.016    2.016    2.016
 (dLV/dLP)t      -0.99999 -0.99999 -0.99999 -0.99999 -0.99999 -0.99999 -1.00000 -1.00000
 (dLV/dLT)p        1.0000   1.0000   1.0000   1.0000   1.0000   1.0000   1.0000   1.0000
 Cp, KJ/(KG)(K)   14.5105  14.5115  14.5126  14.5138  14.5149  14.5161  14.5002  14.5015
 GAMMAs            1.3971   1.3971   1.3970   1.3970   1.3970   1.3969   1.3975   1.3975
 SON VEL,M/SEC     1688.9   1697.4   1705.8   1714.2   1722.6   1730.9   1610.5   1619.4

 TRANSPORT PROPERTIES (GASES ONLY)
   CONDUCTIVITY IN UNITS OF MILLIWATTS/(CM)(K)

 VISC,MILLIPOISE  0.12596  0.12683  0.12769  0.12856  0.12942  0.13028  0.10302  0.11498

  WITH EQUILIBRIUM REACTIONS

 Cp, KJ/(KG)(K)   14.5105  14.5115  14.5126  14.5138  14.5149  14.5161  14.5002  14.5015
 CONDUCTIVITY      2.6549   2.6732   2.6915   2.7098   2.7280   2.7462   1.6628   2.2447
 PRANDTL NUMBER    0.6884   0.6885   0.6885   0.6886   0.6886   0.6886   0.8984   0.7428

  WITH FROZEN REACTIONS

 Cp, KJ/(KG)(K)   14.5105  14.5115  14.5126  14.5138  14.5149  14.5161  14.5002  14.5015
 CONDUCTIVITY      2.6549   2.6732   2.6915   2.7098   2.7280   2.7462   1.6628   2.2447
 PRANDTL NUMBER    0.6884   0.6885   0.6885   0.6886   0.6886   0.6886   0.8984   0.7428

 MASS FRACTIONS

 *H2              1.00000  1.00000  1.00000  1.00000  1.00000  1.00000  1.00000  1.00000

  * THERMODYNAMIC PROPERTIES FITTED TO 20000.K

 NOTE. WEIGHT FRACTION OF FUEL IN TOTAL FUELS AND OF OXIDANT IN TOTAL OXIDANTS









               THERMODYNAMIC EQUILIBRIUM PROPERTIES AT ASSIGNED

                           TEMPERATURE AND PRESSURE

 CASE =                

             REACTANT                    WT FRACTION      ENERGY      TEMP
                                          (SEE NOTE)     KJ/KG-MOL      K  
 FUEL        H2                           1.0000000         0.000      0.000
 OXIDANT     H2                           1.0000000         0.000      0.000

 O/F=    1.00000  %FUEL= 50.000000  R,EQ.RATIO= 0.000000  PHI,EQ.RATIO=-1.000000

 THERMODYNAMIC PROPERTIES

 P, BAR           0.06700  0.06700  0.06700  0.06700  0.06700  0.06700  0.06700  0.06700
 T, K              460.00   465.00   470.00   475.00   480.00   485.00   490.00   495.00
 RHO, KG/CU M    3.5314-3 3.4934-3 3.4563-3 3.4199-3 3.3843-3 3.3494-3 3.3152-3 3.2817-3
 H, KJ/KG         2337.81  2410.33  2482.85  2555.38  2627.91  2700.45  2773.00  2845.55
 U, KJ/KG          440.55   492.44   544.34   596.25   648.16   700.08   752.00   803.93
 G, KJ/KG        -35490.4 -35901.9 -36314.3 -36727.4 -37141.3 -37555.9 -37971.3 -38387.4
 S, KJ/(KG)(K)    82.2352  82.3920  82.5471  82.7006  82.8525  83.0028  83.1516  83.2990

 M, (1/n)           2.016    2.016    2.016    2.016    2.016    2.016    2.016    2.016
 (dLV/dLP)t      -0.99999 -0.99999 -0.99999 -0.99999 -0.99999 -0.99999 -0.99999 -0.99999
 (dLV/dLT)p        1.0000   1.0000   1.0000   1.0000   1.0000   1.0000   1.0000   1.0000
 Cp, KJ/(KG)(K)   14.5028  14.5039  14.5051  14.5062  14.5073  14.5083  14.5094  14.5105
 GAMMAs            1.3974   1.3974   1.3973   1.3973   1.3973   1.3972   1.3972   1.3971
 SON VEL,M/SEC     1628.3   1637.1   1645.8   1654.5   1663.2   1671.8   1680.4   1688.9

 TRANSPORT PROPERTIES (GASES ONLY)
   CONDUCTIVITY IN UNITS OF MILLIWATTS/(CM)(K)

 VISC,MILLIPOISE  0.11883  0.12045  0.12152  0.12244  0.12333  0.12421  0.12509  0.12596

  WITH EQUILIBRIUM REACTIONS

 Cp, KJ/(KG)(K)   14.5028  14.5039  14.5051  14.5062  14.5073  14.5083  14.5094  14.5105
 CONDUCTIVITY      2.4569   2.5269   2.5584   2.5801   2.5994   2.6180   2.6365   2.6549
 PRANDTL NUMBER    0.7015   0.6914   0.6890   0.6884   0.6883   0.6883   0.6884   0.6884

  WITH FROZEN REACTIONS

 Cp, KJ/(KG)(K)   14.5028  14.5039  14.5051  14.5062  14.5073  14.5083  14.5094  14.5105
 CONDUCTIVITY      2.4569   2.5269   2.5584   2.5801   2.5994   2.6180   2.6365   2.6549
 PRANDTL NUMBER    0.7015   0.6914   0.6890   0.6884   0.6883   0.6883   0.6884   0.6884

 MASS FRACTIONS

 *H2              1.00000  1.00000  1.00000  1.00000  1.00000  1.00000  1.00000  1.00000

  * THERMODYNAMIC PROPERTIES FITTED TO 20000.K

 NOTE. WEIGHT FRACTION OF FUEL IN TOTAL FUELS AND OF OXIDANT IN TOTAL OXIDANTS









               THERMODYNAMIC EQUILIBRIUM PROPERTIES AT ASSIGNED

                           TEMPERATURE AND PRESSURE

 CASE =                

             REACTANT                    WT FRACTION      ENERGY      TEMP
                                          (SEE NOTE)     KJ/KG-MOL      K  
 FUEL        H2                           1.0000000         0.000      0.000
 OXIDANT     H2                           1.0000000         0.000      0.000

 O/F=    1.00000  %FUEL= 50.000000  R,EQ.RATIO= 0.000000  PHI,EQ.RATIO=-1.000000

 THERMODYNAMIC PROPERTIES

 P, BAR           0.06700  0.06700  0.06700  0.06700  0.06700  0.07400  0.07400  0.07400
 T, K              500.00   505.00   510.00   515.00   520.00   450.00   455.00   460.00
 RHO, KG/CU M    3.2489-3 3.2167-3 3.1852-3 3.1543-3 3.1239-3 3.9870-3 3.9432-3 3.9004-3
 H, KJ/KG         2918.10  2990.66  3063.23  3135.80  3208.38  2192.80  2265.30  2337.81
 U, KJ/KG          855.86   907.80   959.74  1011.69  1063.65   336.78   388.66   440.55
 G, KJ/KG        -38804.3 -39221.9 -39640.2 -40059.2 -40478.9 -34485.2 -34893.1 -35301.8
 S, KJ/(KG)(K)    83.4448  83.5892  83.7322  83.8738  84.0140  81.5067  81.6668  81.8253

 M, (1/n)           2.016    2.016    2.016    2.016    2.016    2.016    2.016    2.016
 (dLV/dLP)t      -0.99999 -0.99999 -0.99999 -0.99999 -0.99999 -1.00000 -1.00000 -0.99999
 (dLV/dLT)p        1.0000   1.0000   1.0000   1.0000   1.0000   1.0000   1.0000   1.0000
 Cp, KJ/(KG)(K)   14.5115  14.5126  14.5138  14.5149  14.5161  14.5002  14.5015  14.5028
 GAMMAs            1.3971   1.3970   1.3970   1.3970   1.3969   1.3975   1.3975   1.3974
 SON VEL,M/SEC     1697.4   1705.8   1714.2   1722.6   1730.9   1610.5   1619.4   1628.3

 TRANSPORT PROPERTIES (GASES ONLY)
   CONDUCTIVITY IN UNITS OF MILLIWATTS/(CM)(K)

 VISC,MILLIPOISE  0.12683  0.12769  0.12856  0.12942  0.13028  0.10302  0.11498  0.11883

  WITH EQUILIBRIUM REACTIONS

 Cp, KJ/(KG)(K)   14.5115  14.5126  14.5138  14.5149  14.5161  14.5002  14.5015  14.5028
 CONDUCTIVITY      2.6732   2.6915   2.7098   2.7280   2.7462   1.6628   2.2447   2.4569
 PRANDTL NUMBER    0.6885   0.6885   0.6886   0.6886   0.6886   0.8984   0.7428   0.7015

  WITH FROZEN REACTIONS

 Cp, KJ/(KG)(K)   14.5115  14.5126  14.5138  14.5149  14.5161  14.5002  14.5015  14.5028
 CONDUCTIVITY      2.6732   2.6915   2.7098   2.7280   2.7462   1.6628   2.2447   2.4569
 PRANDTL NUMBER    0.6885   0.6885   0.6886   0.6886   0.6886   0.8984   0.7428   0.7015

 MASS FRACTIONS

 *H2              1.00000  1.00000  1.00000  1.00000  1.00000  1.00000  1.00000  1.00000

  * THERMODYNAMIC PROPERTIES FITTED TO 20000.K

 NOTE. WEIGHT FRACTION OF FUEL IN TOTAL FUELS AND OF OXIDANT IN TOTAL OXIDANTS









               THERMODYNAMIC EQUILIBRIUM PROPERTIES AT ASSIGNED

                           TEMPERATURE AND PRESSURE

 CASE =                

             REACTANT                    WT FRACTION      ENERGY      TEMP
                                          (SEE NOTE)     KJ/KG-MOL      K  
 FUEL        H2                           1.0000000         0.000      0.000
 OXIDANT     H2                           1.0000000         0.000      0.000

 O/F=    1.00000  %FUEL= 50.000000  R,EQ.RATIO= 0.000000  PHI,EQ.RATIO=-1.000000

 THERMODYNAMIC PROPERTIES

 P, BAR           0.07400  0.07400  0.07400  0.07400  0.07400  0.07400  0.07400  0.07400
 T, K              465.00   470.00   475.00   480.00   485.00   490.00   495.00   500.00
 RHO, KG/CU M    3.8584-3 3.8174-3 3.7772-3 3.7378-3 3.6993-3 3.6616-3 3.6246-3 3.5883-3
 H, KJ/KG         2410.33  2482.85  2555.38  2627.91  2700.45  2773.00  2845.55  2918.10
 U, KJ/KG          492.44   544.34   596.25   648.16   700.08   752.00   803.93   855.86
 G, KJ/KG        -35711.3 -36121.6 -36532.7 -36944.5 -37357.1 -37770.5 -38184.6 -38599.4
 S, KJ/(KG)(K)    81.9821  82.1372  82.2907  82.4426  82.5930  82.7418  82.8891  83.0349

 M, (1/n)           2.016    2.016    2.016    2.016    2.016    2.016    2.016    2.016
 (dLV/dLP)t      -0.99999 -0.99999 -0.99999 -0.99999 -0.99999 -0.99999 -0.99999 -0.99999
 (dLV/dLT)p        1.0000   1.0000   1.0000   1.0000   1.0000   1.0000   1.0000   1.0000
 Cp, KJ/(KG)(K)   14.5039  14.5051  14.5062  14.5073  14.5083  14.5094  14.5105  14.5115
 GAMMAs            1.3974   1.3973   1.3973   1.3973   1.3972   1.3972   1.3971   1.3971
 SON VEL,M/SEC     1637.1   1645.8   1654.5   1663.2   1671.8   1680.4   1688.9   1697.4

 TRANSPORT PROPERTIES (GASES ONLY)
   CONDUCTIVITY IN UNITS OF MILLIWATTS/(CM)(K)

 VISC,MILLIPOISE  0.12045  0.12152  0.12244  0.12333  0.12421  0.12509  0.12596  0.12683

  WITH EQUILIBRIUM REACTIONS

 Cp, KJ/(KG)(K)   14.5039  14.5051  14.5062  14.5073  14.5083  14.5094  14.5105  14.5115
 CONDUCTIVITY      2.5269   2.5584   2.5801   2.5994   2.6180   2.6365   2.6549   2.6732
 PRANDTL NUMBER    0.6914   0.6890   0.6884   0.6883   0.6883   0.6884   0.6884   0.6885

  WITH FROZEN REACTIONS

 Cp, KJ/(KG)(K)   14.5039  14.5051  14.5062  14.5073  14.5083  14.5094  14.5105  14.5115
 CONDUCTIVITY      2.5269   2.5584   2.5801   2.5994   2.6180   2.6365   2.6549   2.6732
 PRANDTL NUMBER    0.6914   0.6890   0.6884   0.6883   0.6883   0.6884   0.6884   0.6885

 MASS FRACTIONS

 *H2              1.00000  1.00000  1.00000  1.00000  1.00000  1.00000  1.00000  1.00000

  * THERMODYNAMIC PROPERTIES FITTED TO 20000.K

 NOTE. WEIGHT FRACTION OF FUEL IN TOTAL FUELS AND OF OXIDANT IN TOTAL OXIDANTS









               THERMODYNAMIC EQUILIBRIUM PROPERTIES AT ASSIGNED

                           TEMPERATURE AND PRESSURE

 CASE =                

             REACTANT                    WT FRACTION      ENERGY      TEMP
                                          (SEE NOTE)     KJ/KG-MOL      K  
 FUEL        H2                           1.0000000         0.000      0.000
 OXIDANT     H2                           1.0000000         0.000      0.000

 O/F=    1.00000  %FUEL= 50.000000  R,EQ.RATIO= 0.000000  PHI,EQ.RATIO=-1.000000

 THERMODYNAMIC PROPERTIES

 P, BAR           0.07400  0.07400  0.07400  0.07400  0.08250  0.08250  0.08250  0.08250
 T, K              505.00   510.00   515.00   520.00   450.00   455.00   460.00   465.00
 RHO, KG/CU M    3.5528-3 3.5180-3 3.4838-3 3.4503-3 4.4450-3 4.3962-3 4.3484-3 4.3016-3
 H, KJ/KG         2990.66  3063.23  3135.80  3208.38  2192.80  2265.30  2337.81  2410.33
 U, KJ/KG          907.80   959.74  1011.69  1063.65   336.78   388.66   440.55   492.44
 G, KJ/KG        -39014.9 -39431.2 -39848.1 -40265.8 -34283.4 -34689.1 -35095.5 -35502.8
 S, KJ/(KG)(K)    83.1793  83.3223  83.4639  83.6042  81.0582  81.2184  81.3768  81.5336

 M, (1/n)           2.016    2.016    2.016    2.016    2.016    2.016    2.016    2.016
 (dLV/dLP)t      -0.99999 -0.99999 -0.99999 -0.99999 -1.00000 -1.00000 -0.99999 -0.99999
 (dLV/dLT)p        1.0000   1.0000   1.0000   1.0000   1.0000   1.0000   1.0000   1.0000
 Cp, KJ/(KG)(K)   14.5126  14.5138  14.5149  14.5161  14.5002  14.5015  14.5028  14.5039
 GAMMAs            1.3970   1.3970   1.3970   1.3969   1.3975   1.3975   1.3974   1.3974
 SON VEL,M/SEC     1705.8   1714.2   1722.6   1730.9   1610.5   1619.4   1628.3   1637.1

 TRANSPORT PROPERTIES (GASES ONLY)
   CONDUCTIVITY IN UNITS OF MILLIWATTS/(CM)(K)

 VISC,MILLIPOISE  0.12769  0.12856  0.12942  0.13028  0.10302  0.11498  0.11883  0.12045

  WITH EQUILIBRIUM REACTIONS

 Cp, KJ/(KG)(K)   14.5126  14.5138  14.5149  14.5161  14.5002  14.5015  14.5028  14.5039
 CONDUCTIVITY      2.6915   2.7098   2.7280   2.7462   1.6628   2.2447   2.4569   2.5269
 PRANDTL NUMBER    0.6885   0.6886   0.6886   0.6886   0.8984   0.7428   0.7015   0.6914

  WITH FROZEN REACTIONS

 Cp, KJ/(KG)(K)   14.5126  14.5138  14.5149  14.5161  14.5002  14.5015  14.5028  14.5039
 CONDUCTIVITY      2.6915   2.7098   2.7280   2.7462   1.6628   2.2447   2.4569   2.5269
 PRANDTL NUMBER    0.6885   0.6886   0.6886   0.6886   0.8984   0.7428   0.7015   0.6914

 MASS FRACTIONS

 *H2              1.00000  1.00000  1.00000  1.00000  1.00000  1.00000  1.00000  1.00000

  * THERMODYNAMIC PROPERTIES FITTED TO 20000.K

 NOTE. WEIGHT FRACTION OF FUEL IN TOTAL FUELS AND OF OXIDANT IN TOTAL OXIDANTS









               THERMODYNAMIC EQUILIBRIUM PROPERTIES AT ASSIGNED

                           TEMPERATURE AND PRESSURE

 CASE =                

             REACTANT                    WT FRACTION      ENERGY      TEMP
                                          (SEE NOTE)     KJ/KG-MOL      K  
 FUEL        H2                           1.0000000         0.000      0.000
 OXIDANT     H2                           1.0000000         0.000      0.000

 O/F=    1.00000  %FUEL= 50.000000  R,EQ.RATIO= 0.000000  PHI,EQ.RATIO=-1.000000

 THERMODYNAMIC PROPERTIES

 P, BAR           0.08250  0.08250  0.08250  0.08250  0.08250  0.08250  0.08250  0.08250
 T, K              470.00   475.00   480.00   485.00   490.00   495.00   500.00   505.00
 RHO, KG/CU M    4.2559-3 4.2111-3 4.1672-3 4.1242-3 4.0821-3 4.0409-3 4.0005-3 3.9609-3
 H, KJ/KG         2482.85  2555.38  2627.91  2700.45  2773.00  2845.55  2918.10  2990.66
 U, KJ/KG          544.34   596.25   648.16   700.08   752.00   803.93   855.86   907.80
 G, KJ/KG        -35910.9 -36319.7 -36729.3 -37139.6 -37550.7 -37962.6 -38375.1 -38788.4
 S, KJ/(KG)(K)    81.6888  81.8423  81.9942  82.1445  82.2933  82.4406  82.5865  82.7309

 M, (1/n)           2.016    2.016    2.016    2.016    2.016    2.016    2.016    2.016
 (dLV/dLP)t      -0.99999 -0.99999 -0.99999 -0.99999 -0.99999 -0.99999 -0.99999 -0.99999
 (dLV/dLT)p        1.0000   1.0000   1.0000   1.0000   1.0000   1.0000   1.0000   1.0000
 Cp, KJ/(KG)(K)   14.5051  14.5062  14.5073  14.5083  14.5094  14.5105  14.5115  14.5126
 GAMMAs            1.3973   1.3973   1.3973   1.3972   1.3972   1.3971   1.3971   1.3970
 SON VEL,M/SEC     1645.8   1654.5   1663.2   1671.8   1680.4   1688.9   1697.4   1705.8

 TRANSPORT PROPERTIES (GASES ONLY)
   CONDUCTIVITY IN UNITS OF MILLIWATTS/(CM)(K)

 VISC,MILLIPOISE  0.12152  0.12244  0.12333  0.12421  0.12509  0.12596  0.12683  0.12769

  WITH EQUILIBRIUM REACTIONS

 Cp, KJ/(KG)(K)   14.5051  14.5062  14.5073  14.5083  14.5094  14.5105  14.5115  14.5126
 CONDUCTIVITY      2.5584   2.5801   2.5994   2.6180   2.6365   2.6549   2.6732   2.6915
 PRANDTL NUMBER    0.6890   0.6884   0.6883   0.6883   0.6884   0.6884   0.6885   0.6885

  WITH FROZEN REACTIONS

 Cp, KJ/(KG)(K)   14.5051  14.5062  14.5073  14.5083  14.5094  14.5105  14.5115  14.5126
 CONDUCTIVITY      2.5584   2.5801   2.5994   2.6180   2.6365   2.6549   2.6732   2.6915
 PRANDTL NUMBER    0.6890   0.6884   0.6883   0.6883   0.6884   0.6884   0.6885   0.6885

 MASS FRACTIONS

 *H2              1.00000  1.00000  1.00000  1.00000  1.00000  1.00000  1.00000  1.00000

  * THERMODYNAMIC PROPERTIES FITTED TO 20000.K

 NOTE. WEIGHT FRACTION OF FUEL IN TOTAL FUELS AND OF OXIDANT IN TOTAL OXIDANTS









               THERMODYNAMIC EQUILIBRIUM PROPERTIES AT ASSIGNED

                           TEMPERATURE AND PRESSURE

 CASE =                

             REACTANT                    WT FRACTION      ENERGY      TEMP
                                          (SEE NOTE)     KJ/KG-MOL      K  
 FUEL        H2                           1.0000000         0.000      0.000
 OXIDANT     H2                           1.0000000         0.000      0.000

 O/F=    1.00000  %FUEL= 50.000000  R,EQ.RATIO= 0.000000  PHI,EQ.RATIO=-1.000000

 THERMODYNAMIC PROPERTIES

 P, BAR           0.08250  0.08250  0.08250  0.09100  0.09100  0.09100  0.09100  0.09100
 T, K              510.00   515.00   520.00   450.00   455.00   460.00   465.00   470.00
 RHO, KG/CU M    3.9221-3 3.8840-3 3.8466-3 4.9030-3 4.8491-3 4.7964-3 4.7448-3 4.6943-3
 H, KJ/KG         3063.23  3135.80  3208.38  2192.80  2265.30  2337.81  2410.33  2482.85
 U, KJ/KG          959.74  1011.69  1063.65   336.78   388.66   440.55   492.44   544.34
 G, KJ/KG        -39202.4 -39617.2 -40032.6 -34101.4 -34505.0 -34909.5 -35314.7 -35720.8
 S, KJ/(KG)(K)    82.8739  83.0155  83.1557  80.6538  80.8139  80.9724  81.1292  81.2843

 M, (1/n)           2.016    2.016    2.016    2.016    2.016    2.016    2.016    2.016
 (dLV/dLP)t      -0.99999 -0.99999 -0.99999 -1.00000 -1.00000 -0.99999 -0.99999 -0.99999
 (dLV/dLT)p        1.0000   1.0000   1.0000   1.0000   1.0000   1.0000   1.0000   1.0000
 Cp, KJ/(KG)(K)   14.5138  14.5149  14.5161  14.5002  14.5015  14.5028  14.5039  14.5051
 GAMMAs            1.3970   1.3970   1.3969   1.3975   1.3975   1.3974   1.3974   1.3973
 SON VEL,M/SEC     1714.2   1722.6   1730.9   1610.5   1619.4   1628.3   1637.1   1645.8

 TRANSPORT PROPERTIES (GASES ONLY)
   CONDUCTIVITY IN UNITS OF MILLIWATTS/(CM)(K)

 VISC,MILLIPOISE  0.12856  0.12942  0.13028  0.10302  0.11498  0.11883  0.12045  0.12152

  WITH EQUILIBRIUM REACTIONS

 Cp, KJ/(KG)(K)   14.5138  14.5149  14.5161  14.5002  14.5015  14.5028  14.5039  14.5051
 CONDUCTIVITY      2.7098   2.7280   2.7462   1.6628   2.2447   2.4569   2.5269   2.5584
 PRANDTL NUMBER    0.6886   0.6886   0.6886   0.8984   0.7428   0.7015   0.6914   0.6890

  WITH FROZEN REACTIONS

 Cp, KJ/(KG)(K)   14.5138  14.5149  14.5161  14.5002  14.5015  14.5028  14.5039  14.5051
 CONDUCTIVITY      2.7098   2.7280   2.7462   1.6628   2.2447   2.4569   2.5269   2.5584
 PRANDTL NUMBER    0.6886   0.6886   0.6886   0.8984   0.7428   0.7015   0.6914   0.6890

 MASS FRACTIONS

 *H2              1.00000  1.00000  1.00000  1.00000  1.00000  1.00000  1.00000  1.00000

  * THERMODYNAMIC PROPERTIES FITTED TO 20000.K

 NOTE. WEIGHT FRACTION OF FUEL IN TOTAL FUELS AND OF OXIDANT IN TOTAL OXIDANTS









               THERMODYNAMIC EQUILIBRIUM PROPERTIES AT ASSIGNED

                           TEMPERATURE AND PRESSURE

 CASE =                

             REACTANT                    WT FRACTION      ENERGY      TEMP
                                          (SEE NOTE)     KJ/KG-MOL      K  
 FUEL        H2                           1.0000000         0.000      0.000
 OXIDANT     H2                           1.0000000         0.000      0.000

 O/F=    1.00000  %FUEL= 50.000000  R,EQ.RATIO= 0.000000  PHI,EQ.RATIO=-1.000000

 THERMODYNAMIC PROPERTIES

 P, BAR           0.09100  0.09100  0.09100  0.09100  0.09100  0.09100  0.09100  0.09100
 T, K              475.00   480.00   485.00   490.00   495.00   500.00   505.00   510.00
 RHO, KG/CU M    4.6449-3 4.5965-3 4.5491-3 4.5027-3 4.4572-3 4.4127-3 4.3690-3 4.3261-3
 H, KJ/KG         2555.38  2627.91  2700.45  2773.00  2845.55  2918.10  2990.66  3063.23
 U, KJ/KG          596.25   648.16   700.08   752.00   803.93   855.86   907.80   959.74
 G, KJ/KG        -36127.6 -36535.1 -36943.5 -37352.5 -37762.4 -38172.9 -38584.2 -38996.2
 S, KJ/(KG)(K)    81.4378  81.5897  81.7400  81.8889  82.0362  82.1820  82.3264  82.4694

 M, (1/n)           2.016    2.016    2.016    2.016    2.016    2.016    2.016    2.016
 (dLV/dLP)t      -0.99999 -0.99999 -0.99999 -0.99999 -0.99999 -0.99999 -0.99999 -0.99999
 (dLV/dLT)p        1.0000   1.0000   1.0000   1.0000   1.0000   1.0000   1.0000   1.0000
 Cp, KJ/(KG)(K)   14.5062  14.5073  14.5083  14.5094  14.5105  14.5115  14.5126  14.5138
 GAMMAs            1.3973   1.3973   1.3972   1.3972   1.3971   1.3971   1.3970   1.3970
 SON VEL,M/SEC     1654.5   1663.2   1671.8   1680.4   1688.9   1697.4   1705.8   1714.2

 TRANSPORT PROPERTIES (GASES ONLY)
   CONDUCTIVITY IN UNITS OF MILLIWATTS/(CM)(K)

 VISC,MILLIPOISE  0.12244  0.12333  0.12421  0.12509  0.12596  0.12683  0.12769  0.12856

  WITH EQUILIBRIUM REACTIONS

 Cp, KJ/(KG)(K)   14.5062  14.5073  14.5083  14.5094  14.5105  14.5115  14.5126  14.5138
 CONDUCTIVITY      2.5801   2.5994   2.6180   2.6365   2.6549   2.6732   2.6915   2.7098
 PRANDTL NUMBER    0.6884   0.6883   0.6883   0.6884   0.6884   0.6885   0.6885   0.6886

  WITH FROZEN REACTIONS

 Cp, KJ/(KG)(K)   14.5062  14.5073  14.5083  14.5094  14.5105  14.5115  14.5126  14.5138
 CONDUCTIVITY      2.5801   2.5994   2.6180   2.6365   2.6549   2.6732   2.6915   2.7098
 PRANDTL NUMBER    0.6884   0.6883   0.6883   0.6884   0.6884   0.6885   0.6885   0.6886

 MASS FRACTIONS

 *H2              1.00000  1.00000  1.00000  1.00000  1.00000  1.00000  1.00000  1.00000

  * THERMODYNAMIC PROPERTIES FITTED TO 20000.K

 NOTE. WEIGHT FRACTION OF FUEL IN TOTAL FUELS AND OF OXIDANT IN TOTAL OXIDANTS









               THERMODYNAMIC EQUILIBRIUM PROPERTIES AT ASSIGNED

                           TEMPERATURE AND PRESSURE

 CASE =                

             REACTANT                    WT FRACTION      ENERGY      TEMP
                                          (SEE NOTE)     KJ/KG-MOL      K  
 FUEL        H2                           1.0000000         0.000      0.000
 OXIDANT     H2                           1.0000000         0.000      0.000

 O/F=    1.00000  %FUEL= 50.000000  R,EQ.RATIO= 0.000000  PHI,EQ.RATIO=-1.000000

 THERMODYNAMIC PROPERTIES

 P, BAR           0.09100  0.09100  0.10000  0.10000  0.10000  0.10000  0.10000  0.10000
 T, K              515.00   520.00   450.00   455.00   460.00   465.00   470.00   475.00
 RHO, KG/CU M    4.2841-3 4.2430-3 5.3879-3 5.3287-3 5.2707-3 5.2141-3 5.1586-3 5.1043-3
 H, KJ/KG         3135.80  3208.38  2192.80  2265.30  2337.81  2410.33  2482.85  2555.38
 U, KJ/KG         1011.69  1063.65   336.78   388.66   440.55   492.44   544.34   596.25
 G, KJ/KG        -39408.9 -39822.3 -33926.3 -34328.0 -34730.6 -35133.9 -35537.9 -35942.8
 S, KJ/(KG)(K)    82.6110  82.7512  80.2648  80.4249  80.5834  80.7402  80.8953  81.0488

 M, (1/n)           2.016    2.016    2.016    2.016    2.016    2.016    2.016    2.016
 (dLV/dLP)t      -0.99999 -0.99999 -1.00000 -1.00000 -0.99999 -0.99999 -0.99999 -0.99999
 (dLV/dLT)p        1.0000   1.0000   1.0000   1.0000   1.0000   1.0000   1.0000   1.0000
 Cp, KJ/(KG)(K)   14.5149  14.5161  14.5002  14.5015  14.5028  14.5039  14.5051  14.5062
 GAMMAs            1.3970   1.3969   1.3975   1.3975   1.3974   1.3974   1.3973   1.3973
 SON VEL,M/SEC     1722.6   1730.9   1610.5   1619.4   1628.3   1637.1   1645.8   1654.5

 TRANSPORT PROPERTIES (GASES ONLY)
   CONDUCTIVITY IN UNITS OF MILLIWATTS/(CM)(K)

 VISC,MILLIPOISE  0.12942  0.13028  0.10302  0.11498  0.11883  0.12045  0.12152  0.12244

  WITH EQUILIBRIUM REACTIONS

 Cp, KJ/(KG)(K)   14.5149  14.5161  14.5002  14.5015  14.5028  14.5039  14.5051  14.5062
 CONDUCTIVITY      2.7280   2.7462   1.6628   2.2447   2.4569   2.5269   2.5584   2.5801
 PRANDTL NUMBER    0.6886   0.6886   0.8984   0.7428   0.7015   0.6914   0.6890   0.6884

  WITH FROZEN REACTIONS

 Cp, KJ/(KG)(K)   14.5149  14.5161  14.5002  14.5015  14.5028  14.5039  14.5051  14.5062
 CONDUCTIVITY      2.7280   2.7462   1.6628   2.2447   2.4569   2.5269   2.5584   2.5801
 PRANDTL NUMBER    0.6886   0.6886   0.8984   0.7428   0.7015   0.6914   0.6890   0.6884

 MASS FRACTIONS

 *H2              1.00000  1.00000  1.00000  1.00000  1.00000  1.00000  1.00000  1.00000

  * THERMODYNAMIC PROPERTIES FITTED TO 20000.K

 NOTE. WEIGHT FRACTION OF FUEL IN TOTAL FUELS AND OF OXIDANT IN TOTAL OXIDANTS









               THERMODYNAMIC EQUILIBRIUM PROPERTIES AT ASSIGNED

                           TEMPERATURE AND PRESSURE

 CASE =                

             REACTANT                    WT FRACTION      ENERGY      TEMP
                                          (SEE NOTE)     KJ/KG-MOL      K  
 FUEL        H2                           1.0000000         0.000      0.000
 OXIDANT     H2                           1.0000000         0.000      0.000

 O/F=    1.00000  %FUEL= 50.000000  R,EQ.RATIO= 0.000000  PHI,EQ.RATIO=-1.000000

 THERMODYNAMIC PROPERTIES

 P, BAR           0.10000  0.10000  0.10000  0.10000  0.10000  0.10000  0.10000  0.10000
 T, K              480.00   485.00   490.00   495.00   500.00   505.00   510.00   515.00
 RHO, KG/CU M    5.0511-3 4.9991-3 4.9481-3 4.8981-3 4.8491-3 4.8011-3 4.7540-3 4.7079-3
 H, KJ/KG         2627.91  2700.45  2773.00  2845.55  2918.10  2990.66  3063.23  3135.80
 U, KJ/KG          648.16   700.08   752.00   803.93   855.86   907.80   959.74  1011.69
 G, KJ/KG        -36348.4 -36754.8 -37161.9 -37569.8 -37978.4 -38387.7 -38797.8 -39208.5
 S, KJ/(KG)(K)    81.2007  81.3511  81.4999  81.6472  81.7930  81.9374  82.0804  82.2220

 M, (1/n)           2.016    2.016    2.016    2.016    2.016    2.016    2.016    2.016
 (dLV/dLP)t      -0.99999 -0.99999 -0.99999 -0.99999 -0.99999 -0.99999 -0.99999 -0.99999
 (dLV/dLT)p        1.0000   1.0000   1.0000   1.0000   1.0000   1.0000   1.0000   1.0000
 Cp, KJ/(KG)(K)   14.5073  14.5083  14.5094  14.5105  14.5115  14.5126  14.5138  14.5149
 GAMMAs            1.3973   1.3972   1.3972   1.3971   1.3971   1.3970   1.3970   1.3970
 SON VEL,M/SEC     1663.2   1671.8   1680.4   1688.9   1697.4   1705.8   1714.2   1722.6

 TRANSPORT PROPERTIES (GASES ONLY)
   CONDUCTIVITY IN UNITS OF MILLIWATTS/(CM)(K)

 VISC,MILLIPOISE  0.12333  0.12421  0.12509  0.12596  0.12683  0.12769  0.12856  0.12942

  WITH EQUILIBRIUM REACTIONS

 Cp, KJ/(KG)(K)   14.5073  14.5083  14.5094  14.5105  14.5115  14.5126  14.5138  14.5149
 CONDUCTIVITY      2.5994   2.6180   2.6365   2.6549   2.6732   2.6915   2.7098   2.7280
 PRANDTL NUMBER    0.6883   0.6883   0.6884   0.6884   0.6885   0.6885   0.6886   0.6886

  WITH FROZEN REACTIONS

 Cp, KJ/(KG)(K)   14.5073  14.5083  14.5094  14.5105  14.5115  14.5126  14.5138  14.5149
 CONDUCTIVITY      2.5994   2.6180   2.6365   2.6549   2.6732   2.6915   2.7098   2.7280
 PRANDTL NUMBER    0.6883   0.6883   0.6884   0.6884   0.6885   0.6885   0.6886   0.6886

 MASS FRACTIONS

 *H2              1.00000  1.00000  1.00000  1.00000  1.00000  1.00000  1.00000  1.00000

  * THERMODYNAMIC PROPERTIES FITTED TO 20000.K

 NOTE. WEIGHT FRACTION OF FUEL IN TOTAL FUELS AND OF OXIDANT IN TOTAL OXIDANTS









               THERMODYNAMIC EQUILIBRIUM PROPERTIES AT ASSIGNED

                           TEMPERATURE AND PRESSURE

 CASE =                

             REACTANT                    WT FRACTION      ENERGY      TEMP
                                          (SEE NOTE)     KJ/KG-MOL      K  
 FUEL        H2                           1.0000000         0.000      0.000
 OXIDANT     H2                           1.0000000         0.000      0.000

 O/F=    1.00000  %FUEL= 50.000000  R,EQ.RATIO= 0.000000  PHI,EQ.RATIO=-1.000000

 THERMODYNAMIC PROPERTIES

 P, BAR           0.10000
 T, K              520.00
 RHO, KG/CU M    4.6626-3
 H, KJ/KG         3208.38
 U, KJ/KG         1063.65
 G, KJ/KG        -39620.0
 S, KJ/(KG)(K)    82.3623

 M, (1/n)           2.016
 (dLV/dLP)t      -0.99999
 (dLV/dLT)p        1.0000
 Cp, KJ/(KG)(K)   14.5161
 GAMMAs            1.3969
 SON VEL,M/SEC     1730.9

 TRANSPORT PROPERTIES (GASES ONLY)
   CONDUCTIVITY IN UNITS OF MILLIWATTS/(CM)(K)

 VISC,MILLIPOISE  0.13028

  WITH EQUILIBRIUM REACTIONS

 Cp, KJ/(KG)(K)   14.5161
 CONDUCTIVITY      2.7462
 PRANDTL NUMBER    0.6886

  WITH FROZEN REACTIONS

 Cp, KJ/(KG)(K)   14.5161
 CONDUCTIVITY      2.7462
 PRANDTL NUMBER    0.6886

 MASS FRACTIONS

 *H2              1.00000

  * THERMODYNAMIC PROPERTIES FITTED TO 20000.K

 NOTE. WEIGHT FRACTION OF FUEL IN TOTAL FUELS AND OF OXIDANT IN TOTAL OXIDANTS



  
