
 *******************************************************************************

         NASA-GLENN CHEMICAL EQUILIBRIUM PROGRAM CEA2, MAY 21, 2004
                   BY  BONNIE MCBRIDE AND SANFORD GORDON
      REFS: NASA RP-1311, PART I, 1994 AND NASA RP-1311, PART II, 1996

 *******************************************************************************



  prob tp ions
  p,bar= 12.0,13.2,14.8,16.5,18.0,20.0,22.5,25.0,28.0,31.0,35.0,39.0,44.0,49.0,54
 .0
  t,k= 3050,3060,3070,3080,3090,3100,3110,3120,3130,3140,3150,3160,3170,3180,3190
  
  
  reac
  fuel H2                wt%=100.0000
  oxid H2                wt%=100.0000
  
  output short
  
  output massf
  
  output siunits
  
  output transport
  
 end





               THERMODYNAMIC EQUILIBRIUM PROPERTIES AT ASSIGNED

                           TEMPERATURE AND PRESSURE

 CASE =                

             REACTANT                    WT FRACTION      ENERGY      TEMP
                                          (SEE NOTE)     KJ/KG-MOL      K  
 FUEL        H2                           1.0000000         0.000      0.000
 OXIDANT     H2                           1.0000000         0.000      0.000

 O/F=    1.00000  %FUEL= 50.000000  R,EQ.RATIO= 0.000000  PHI,EQ.RATIO=-1.000000

 THERMODYNAMIC PROPERTIES

 P, BAR            12.000   12.000   12.000   12.000   12.000   12.000   12.000   12.000
 T, K             3050.00  3060.00  3070.00  3080.00  3090.00  3100.00  3110.00  3120.00
 RHO, KG/CU M    9.2925-2 9.2550-2 9.2175-2 9.1801-2 9.1428-2 9.1056-2 9.0685-2 9.0314-2
 H, KJ/KG         50990.8  51357.7  51729.1  52105.0  52485.4  52870.3  53260.0  53654.3
 U, KJ/KG         38077.1  38391.7  38710.4  39033.2  39360.3  39691.6  40027.3  40367.3
 G, KJ/KG       -232367.7-233296.5-234227.3-235159.4-236092.7-237027.2-237963.0-238900.0
 S, KJ/(KG)(K)    92.9044  93.0243  93.1454  93.2677  93.3910  93.5153  93.6408  93.7674

 M, (1/n)           1.964    1.962    1.961    1.959    1.957    1.956    1.954    1.952
 (dLV/dLP)t      -1.01291 -1.01330 -1.01368 -1.01407 -1.01448 -1.01489 -1.01531 -1.01573
 (dLV/dLT)p        1.2342   1.2403   1.2465   1.2528   1.2592   1.2657   1.2723   1.2790
 Cp, KJ/(KG)(K)   36.4882  36.9228  37.3641  37.8121  38.2668  38.7282  39.1964  39.6714
 GAMMAs            1.1960   1.1951   1.1943   1.1934   1.1926   1.1918   1.1911   1.1903
 SON VEL,M/SEC     3929.9   3936.4   3943.1   3949.7   3956.4   3963.2   3970.0   3976.9

 TRANSPORT PROPERTIES (GASES ONLY)
   CONDUCTIVITY IN UNITS OF MILLIWATTS/(CM)(K)

 VISC,MILLIPOISE  0.47552  0.47713  0.47875  0.48038  0.48202  0.48367  0.48533  0.48699

  WITH EQUILIBRIUM REACTIONS

 Cp, KJ/(KG)(K)   36.4882  36.9228  37.3641  37.8121  38.2668  38.7282  39.1964  39.6714
 CONDUCTIVITY     35.4005  36.0360  36.6827  37.3398  38.0075  38.6857  39.3745  40.0740
 PRANDTL NUMBER    0.4901   0.4889   0.4876   0.4865   0.4853   0.4842   0.4831   0.4821

  WITH FROZEN REACTIONS

 Cp, KJ/(KG)(K)   18.5065  18.5190  18.5314  18.5439  18.5564  18.5688  18.5812  18.5936
 CONDUCTIVITY     12.5933  12.6459  12.6995  12.7534  12.8076  12.8622  12.9170  12.9722
 PRANDTL NUMBER    0.6988   0.6987   0.6986   0.6985   0.6984   0.6983   0.6981   0.6980

 MASS FRACTIONS

 *H               0.02654  0.02734  0.02815  0.02899  0.02984  0.03072  0.03161  0.03252
 *H2              0.97346  0.97266  0.97185  0.97101  0.97016  0.96928  0.96839  0.96748

  * THERMODYNAMIC PROPERTIES FITTED TO 20000.K

 NOTE. WEIGHT FRACTION OF FUEL IN TOTAL FUELS AND OF OXIDANT IN TOTAL OXIDANTS









               THERMODYNAMIC EQUILIBRIUM PROPERTIES AT ASSIGNED

                           TEMPERATURE AND PRESSURE

 CASE =                

             REACTANT                    WT FRACTION      ENERGY      TEMP
                                          (SEE NOTE)     KJ/KG-MOL      K  
 FUEL        H2                           1.0000000         0.000      0.000
 OXIDANT     H2                           1.0000000         0.000      0.000

 O/F=    1.00000  %FUEL= 50.000000  R,EQ.RATIO= 0.000000  PHI,EQ.RATIO=-1.000000

 THERMODYNAMIC PROPERTIES

 P, BAR            12.000   12.000   12.000   12.000   12.000   12.000   12.000   13.200
 T, K             3130.00  3140.00  3150.00  3160.00  3170.00  3180.00  3190.00  3050.00
 RHO, KG/CU M    8.9944-2 8.9575-2 8.9206-2 8.8839-2 8.8471-2 8.8105-2 8.7739-2 1.0234-1
 H, KJ/KG         54053.4  54457.4  54866.3  55280.1  55699.1  56123.2  56552.4  50709.1
 U, KJ/KG         40711.8  41060.8  41414.3  41772.5  42135.4  42503.0  42875.5  37811.0
 G, KJ/KG       -239838.3-240777.9-241718.8-242661.0-243604.5-244549.4-245495.6-231136.8
 S, KJ/(KG)(K)    93.8951  94.0240  94.1540  94.2852  94.4175  94.5511  94.6859  92.4085

 M, (1/n)           1.951    1.949    1.947    1.945    1.943    1.941    1.939    1.966
 (dLV/dLP)t      -1.01617 -1.01661 -1.01707 -1.01753 -1.01800 -1.01848 -1.01897 -1.01233
 (dLV/dLT)p        1.2859   1.2928   1.2999   1.3071   1.3144   1.3218   1.3293   1.2236
 Cp, KJ/(KG)(K)   40.1532  40.6419  41.1374  41.6398  42.1492  42.6655  43.1887  35.6503
 GAMMAs            1.1896   1.1888   1.1881   1.1874   1.1868   1.1861   1.1855   1.1980
 SON VEL,M/SEC     3983.8   3990.8   3997.8   4004.9   4012.1   4019.3   4026.6   3930.9

 TRANSPORT PROPERTIES (GASES ONLY)
   CONDUCTIVITY IN UNITS OF MILLIWATTS/(CM)(K)

 VISC,MILLIPOISE  0.48867  0.49036  0.49205  0.49375  0.49547  0.49719  0.49892  0.47494

  WITH EQUILIBRIUM REACTIONS

 Cp, KJ/(KG)(K)   40.1532  40.6419  41.1374  41.6398  42.1492  42.6655  43.1887  35.6503
 CONDUCTIVITY     40.7841  41.5049  42.2364  42.9787  43.7317  44.4955  45.2701  34.3458
 PRANDTL NUMBER    0.4811   0.4802   0.4792   0.4784   0.4775   0.4767   0.4760   0.4930

  WITH FROZEN REACTIONS

 Cp, KJ/(KG)(K)   18.6060  18.6185  18.6308  18.6432  18.6556  18.6680  18.6804  18.5038
 CONDUCTIVITY     13.0276  13.0833  13.1394  13.1957  13.2523  13.3092  13.3665  12.5717
 PRANDTL NUMBER    0.6979   0.6978   0.6977   0.6976   0.6975   0.6974   0.6973   0.6990

 MASS FRACTIONS

 *H               0.03346  0.03441  0.03539  0.03638  0.03740  0.03844  0.03950  0.02531
 *H2              0.96654  0.96559  0.96461  0.96362  0.96260  0.96156  0.96050  0.97469

  * THERMODYNAMIC PROPERTIES FITTED TO 20000.K

 NOTE. WEIGHT FRACTION OF FUEL IN TOTAL FUELS AND OF OXIDANT IN TOTAL OXIDANTS









               THERMODYNAMIC EQUILIBRIUM PROPERTIES AT ASSIGNED

                           TEMPERATURE AND PRESSURE

 CASE =                

             REACTANT                    WT FRACTION      ENERGY      TEMP
                                          (SEE NOTE)     KJ/KG-MOL      K  
 FUEL        H2                           1.0000000         0.000      0.000
 OXIDANT     H2                           1.0000000         0.000      0.000

 O/F=    1.00000  %FUEL= 50.000000  R,EQ.RATIO= 0.000000  PHI,EQ.RATIO=-1.000000

 THERMODYNAMIC PROPERTIES

 P, BAR            13.200   13.200   13.200   13.200   13.200   13.200   13.200   13.200
 T, K             3060.00  3070.00  3080.00  3090.00  3100.00  3110.00  3120.00  3130.00
 RHO, KG/CU M    1.0193-1 1.0152-1 1.0111-1 1.0071-1 1.0030-1 9.9895-2 9.9491-2 9.9088-2
 H, KJ/KG         51067.7  51430.4  51797.4  52168.7  52544.4  52924.5  53309.2  53698.4
 U, KJ/KG         38117.7  38428.3  38742.8  39061.4  39384.0  39710.7  40041.6  40376.8
 G, KJ/KG       -232061.5-232987.3-233914.3-234842.6-235772.0-236702.7-237634.6-238567.7
 S, KJ/(KG)(K)    92.5259  92.6442  92.7636  92.8839  93.0053  93.1277  93.2512  93.3757

 M, (1/n)           1.965    1.963    1.962    1.960    1.959    1.957    1.955    1.954
 (dLV/dLP)t      -1.01269 -1.01306 -1.01344 -1.01382 -1.01422 -1.01462 -1.01502 -1.01544
 (dLV/dLT)p        1.2294   1.2353   1.2414   1.2475   1.2537   1.2600   1.2665   1.2730
 Cp, KJ/(KG)(K)   36.0654  36.4868  36.9146  37.3488  37.7895  38.2366  38.6902  39.1503
 GAMMAs            1.1971   1.1963   1.1955   1.1946   1.1938   1.1930   1.1923   1.1915
 SON VEL,M/SEC     3937.4   3943.9   3950.5   3957.1   3963.8   3970.5   3977.3   3984.1

 TRANSPORT PROPERTIES (GASES ONLY)
   CONDUCTIVITY IN UNITS OF MILLIWATTS/(CM)(K)

 VISC,MILLIPOISE  0.47654  0.47814  0.47975  0.48138  0.48301  0.48465  0.48630  0.48795

  WITH EQUILIBRIUM REACTIONS

 Cp, KJ/(KG)(K)   36.0654  36.4868  36.9146  37.3488  37.7895  38.2366  38.6902  39.1503
 CONDUCTIVITY     34.9560  35.5763  36.2066  36.8470  37.4977  38.1585  38.8296  39.5109
 PRANDTL NUMBER    0.4917   0.4904   0.4891   0.4879   0.4868   0.4856   0.4846   0.4835

  WITH FROZEN REACTIONS

 Cp, KJ/(KG)(K)   18.5162  18.5286  18.5410  18.5534  18.5658  18.5781  18.5905  18.6028
 CONDUCTIVITY     12.6245  12.6775  12.7309  12.7846  12.8386  12.8928  12.9474  13.0022
 PRANDTL NUMBER    0.6989   0.6988   0.6987   0.6986   0.6985   0.6984   0.6982   0.6981

 MASS FRACTIONS

 *H               0.02607  0.02684  0.02764  0.02846  0.02929  0.03014  0.03101  0.03190
 *H2              0.97393  0.97316  0.97236  0.97154  0.97071  0.96986  0.96899  0.96810

  * THERMODYNAMIC PROPERTIES FITTED TO 20000.K

 NOTE. WEIGHT FRACTION OF FUEL IN TOTAL FUELS AND OF OXIDANT IN TOTAL OXIDANTS









               THERMODYNAMIC EQUILIBRIUM PROPERTIES AT ASSIGNED

                           TEMPERATURE AND PRESSURE

 CASE =                

             REACTANT                    WT FRACTION      ENERGY      TEMP
                                          (SEE NOTE)     KJ/KG-MOL      K  
 FUEL        H2                           1.0000000         0.000      0.000
 OXIDANT     H2                           1.0000000         0.000      0.000

 O/F=    1.00000  %FUEL= 50.000000  R,EQ.RATIO= 0.000000  PHI,EQ.RATIO=-1.000000

 THERMODYNAMIC PROPERTIES

 P, BAR            13.200   13.200   13.200   13.200   13.200   13.200   14.800   14.800
 T, K             3140.00  3150.00  3160.00  3170.00  3180.00  3190.00  3050.00  3060.00
 RHO, KG/CU M    9.8685-2 9.8283-2 9.7882-2 9.7482-2 9.7082-2 9.6684-2 1.1490-1 1.1445-1
 H, KJ/KG         54092.2  54490.7  54894.0  55302.2  55715.2  56133.2  50388.4  50737.3
 U, KJ/KG         40716.3  41060.2  41408.4  41761.2  42118.5  42480.4  37508.0  37805.6
 G, KJ/KG       -239502.1-240437.7-241374.7-242312.9-243252.4-244193.2-229662.2-230580.9
 S, KJ/(KG)(K)    93.5014  93.6281  93.7559  93.8849  94.0150  94.1462  91.8198  91.9340

 M, (1/n)           1.952    1.950    1.948    1.946    1.945    1.943    1.969    1.967
 (dLV/dLP)t      -1.01587 -1.01630 -1.01674 -1.01720 -1.01766 -1.01812 -1.01166 -1.01201
 (dLV/dLT)p        1.2797   1.2865   1.2933   1.3003   1.3074   1.3146   1.2115   1.2170
 Cp, KJ/(KG)(K)   39.6170  40.0903  40.5701  41.0566  41.5497  42.0494  34.6956  35.0884
 GAMMAs            1.1908   1.1901   1.1894   1.1887   1.1880   1.1873   1.2005   1.1996
 SON VEL,M/SEC     3991.0   3997.9   4004.9   4011.9   4019.0   4026.2   3932.2   3938.6

 TRANSPORT PROPERTIES (GASES ONLY)
   CONDUCTIVITY IN UNITS OF MILLIWATTS/(CM)(K)

 VISC,MILLIPOISE  0.48962  0.49130  0.49298  0.49468  0.49638  0.49809  0.47427  0.47585

  WITH EQUILIBRIUM REACTIONS

 Cp, KJ/(KG)(K)   39.6170  40.0903  40.5701  41.0566  41.5497  42.0494  34.6956  35.0884
 CONDUCTIVITY     40.2026  40.9046  41.6171  42.3399  43.0731  43.8167  33.1416  33.7219
 PRANDTL NUMBER    0.4825   0.4815   0.4806   0.4797   0.4788   0.4780   0.4965   0.4951

  WITH FROZEN REACTIONS

 Cp, KJ/(KG)(K)   18.6151  18.6275  18.6398  18.6521  18.6644  18.6766  18.5008  18.5131
 CONDUCTIVITY     13.0574  13.1128  13.1686  13.2246  13.2809  13.3375  12.5477  12.5998
 PRANDTL NUMBER    0.6980   0.6979   0.6978   0.6977   0.6976   0.6975   0.6993   0.6992

 MASS FRACTIONS

 *H               0.03281  0.03374  0.03469  0.03566  0.03665  0.03767  0.02390  0.02462
 *H2              0.96719  0.96626  0.96531  0.96434  0.96335  0.96233  0.97610  0.97538

  * THERMODYNAMIC PROPERTIES FITTED TO 20000.K

 NOTE. WEIGHT FRACTION OF FUEL IN TOTAL FUELS AND OF OXIDANT IN TOTAL OXIDANTS









               THERMODYNAMIC EQUILIBRIUM PROPERTIES AT ASSIGNED

                           TEMPERATURE AND PRESSURE

 CASE =                

             REACTANT                    WT FRACTION      ENERGY      TEMP
                                          (SEE NOTE)     KJ/KG-MOL      K  
 FUEL        H2                           1.0000000         0.000      0.000
 OXIDANT     H2                           1.0000000         0.000      0.000

 O/F=    1.00000  %FUEL= 50.000000  R,EQ.RATIO= 0.000000  PHI,EQ.RATIO=-1.000000

 THERMODYNAMIC PROPERTIES

 P, BAR            14.800   14.800   14.800   14.800   14.800   14.800   14.800   14.800
 T, K             3070.00  3080.00  3090.00  3100.00  3110.00  3120.00  3130.00  3140.00
 RHO, KG/CU M    1.1399-1 1.1354-1 1.1309-1 1.1264-1 1.1219-1 1.1174-1 1.1129-1 1.1084-1
 H, KJ/KG         51090.1  51447.0  51808.0  52173.1  52542.4  52916.0  53293.9  53676.1
 U, KJ/KG         38106.9  38411.9  38720.8  39033.5  39350.1  39670.6  39995.2  40323.9
 G, KJ/KG       -231500.8-232421.9-233344.1-234267.5-235192.1-236117.9-237044.9-237973.1
 S, KJ/(KG)(K)    92.0492  92.1652  92.2822  92.4002  92.5191  92.6391  92.7600  92.8819

 M, (1/n)           1.966    1.965    1.963    1.962    1.960    1.959    1.957    1.955
 (dLV/dLP)t      -1.01236 -1.01271 -1.01308 -1.01345 -1.01383 -1.01422 -1.01461 -1.01501
 (dLV/dLT)p        1.2226   1.2283   1.2341   1.2400   1.2460   1.2521   1.2583   1.2647
 Cp, KJ/(KG)(K)   35.4871  35.8919  36.3028  36.7197  37.1428  37.5720  38.0074  38.4490
 GAMMAs            1.1987   1.1979   1.1970   1.1962   1.1954   1.1947   1.1939   1.1931
 SON VEL,M/SEC     3945.0   3951.5   3958.0   3964.6   3971.2   3977.9   3984.6   3991.4

 TRANSPORT PROPERTIES (GASES ONLY)
   CONDUCTIVITY IN UNITS OF MILLIWATTS/(CM)(K)

 VISC,MILLIPOISE  0.47744  0.47903  0.48063  0.48224  0.48386  0.48549  0.48713  0.48877

  WITH EQUILIBRIUM REACTIONS

 Cp, KJ/(KG)(K)   35.4871  35.8919  36.3028  36.7197  37.1428  37.5720  38.0074  38.4490
 CONDUCTIVITY     34.3118  34.9114  35.5206  36.1395  36.7682  37.4066  38.0550  38.7132
 PRANDTL NUMBER    0.4938   0.4925   0.4912   0.4900   0.4888   0.4876   0.4865   0.4854

  WITH FROZEN REACTIONS

 Cp, KJ/(KG)(K)   18.5254  18.5377  18.5500  18.5623  18.5746  18.5869  18.5991  18.6113
 CONDUCTIVITY     12.6523  12.7050  12.7580  12.8113  12.8649  12.9188  12.9729  13.0274
 PRANDTL NUMBER    0.6991   0.6989   0.6988   0.6987   0.6986   0.6985   0.6984   0.6983

 MASS FRACTIONS

 *H               0.02535  0.02611  0.02687  0.02766  0.02847  0.02929  0.03013  0.03099
 *H2              0.97465  0.97389  0.97313  0.97234  0.97153  0.97071  0.96987  0.96901

  * THERMODYNAMIC PROPERTIES FITTED TO 20000.K

 NOTE. WEIGHT FRACTION OF FUEL IN TOTAL FUELS AND OF OXIDANT IN TOTAL OXIDANTS









               THERMODYNAMIC EQUILIBRIUM PROPERTIES AT ASSIGNED

                           TEMPERATURE AND PRESSURE

 CASE =                

             REACTANT                    WT FRACTION      ENERGY      TEMP
                                          (SEE NOTE)     KJ/KG-MOL      K  
 FUEL        H2                           1.0000000         0.000      0.000
 OXIDANT     H2                           1.0000000         0.000      0.000

 O/F=    1.00000  %FUEL= 50.000000  R,EQ.RATIO= 0.000000  PHI,EQ.RATIO=-1.000000

 THERMODYNAMIC PROPERTIES

 P, BAR            14.800   14.800   14.800   14.800   14.800   16.500   16.500   16.500
 T, K             3150.00  3160.00  3170.00  3180.00  3190.00  3050.00  3060.00  3070.00
 RHO, KG/CU M    1.1040-1 1.0995-1 1.0951-1 1.0906-1 1.0862-1 1.2826-1 1.2776-1 1.2725-1
 H, KJ/KG         54062.9  54454.1  54849.9  55250.3  55655.5  50100.0  50440.3  50784.3
 U, KJ/KG         40656.6  40993.6  41334.8  41680.4  42030.2  37235.5  37525.0  37818.0
 G, KJ/KG       -238902.6-239833.2-240765.1-241698.3-242632.7-228262.5-229175.7-230090.0
 S, KJ/(KG)(K)    93.0049  93.1289  93.2540  93.3801  93.5073  91.2664  91.3778  91.4900

 M, (1/n)           1.954    1.952    1.950    1.948    1.947    1.971    1.970    1.969
 (dLV/dLP)t      -1.01543 -1.01585 -1.01627 -1.01671 -1.01715 -1.01106 -1.01139 -1.01172
 (dLV/dLT)p        1.2711   1.2776   1.2842   1.2910   1.2978   1.2006   1.2058   1.2111
 Cp, KJ/(KG)(K)   38.8968  39.3509  39.8112  40.2778  40.7508  33.8372  34.2099  34.5883
 GAMMAs            1.1924   1.1917   1.1910   1.1903   1.1896   1.2028   1.2019   1.2010
 SON VEL,M/SEC     3998.2   4005.1   4012.0   4019.0   4026.0   3933.6   3939.9   3946.3

 TRANSPORT PROPERTIES (GASES ONLY)
   CONDUCTIVITY IN UNITS OF MILLIWATTS/(CM)(K)

 VISC,MILLIPOISE  0.49043  0.49209  0.49376  0.49545  0.49714  0.47367  0.47523  0.47680

  WITH EQUILIBRIUM REACTIONS

 Cp, KJ/(KG)(K)   38.8968  39.3509  39.8112  40.2778  40.7508  33.8372  34.2099  34.5883
 CONDUCTIVITY     39.3813  40.0593  40.7473  41.4453  42.1533  32.0559  32.6092  33.1716
 PRANDTL NUMBER    0.4844   0.4834   0.4824   0.4815   0.4806   0.5000   0.4986   0.4972

  WITH FROZEN REACTIONS

 Cp, KJ/(KG)(K)   18.6236  18.6358  18.6480  18.6602  18.6724  18.4980  18.5103  18.5225
 CONDUCTIVITY     13.0821  13.1372  13.1925  13.2481  13.3040  12.5259  12.5775  12.6293
 PRANDTL NUMBER    0.6982   0.6981   0.6980   0.6978   0.6977   0.6995   0.6994   0.6993

 MASS FRACTIONS

 *H               0.03187  0.03277  0.03368  0.03462  0.03558  0.02264  0.02332  0.02401
 *H2              0.96813  0.96723  0.96632  0.96538  0.96442  0.97736  0.97668  0.97599

  * THERMODYNAMIC PROPERTIES FITTED TO 20000.K

 NOTE. WEIGHT FRACTION OF FUEL IN TOTAL FUELS AND OF OXIDANT IN TOTAL OXIDANTS









               THERMODYNAMIC EQUILIBRIUM PROPERTIES AT ASSIGNED

                           TEMPERATURE AND PRESSURE

 CASE =                

             REACTANT                    WT FRACTION      ENERGY      TEMP
                                          (SEE NOTE)     KJ/KG-MOL      K  
 FUEL        H2                           1.0000000         0.000      0.000
 OXIDANT     H2                           1.0000000         0.000      0.000

 O/F=    1.00000  %FUEL= 50.000000  R,EQ.RATIO= 0.000000  PHI,EQ.RATIO=-1.000000

 THERMODYNAMIC PROPERTIES

 P, BAR            16.500   16.500   16.500   16.500   16.500   16.500   16.500   16.500
 T, K             3080.00  3090.00  3100.00  3110.00  3120.00  3130.00  3140.00  3150.00
 RHO, KG/CU M    1.2675-1 1.2625-1 1.2575-1 1.2526-1 1.2476-1 1.2426-1 1.2377-1 1.2328-1
 H, KJ/KG         51132.1  51483.7  51839.3  52198.9  52562.5  52930.2  53302.1  53678.2
 U, KJ/KG         38114.5  38414.6  38718.4  39025.8  39337.1  39652.1  39971.1  40293.9
 G, KJ/KG       -231005.5-231922.1-232839.8-233758.7-234678.8-235600.0-236522.4-237446.1
 S, KJ/(KG)(K)    91.6031  91.7171  91.8320  91.9478  92.0645  92.1822  92.3008  92.4204

 M, (1/n)           1.967    1.966    1.964    1.963    1.961    1.960    1.958    1.957
 (dLV/dLP)t      -1.01206 -1.01240 -1.01276 -1.01312 -1.01349 -1.01386 -1.01424 -1.01464
 (dLV/dLT)p        1.2165   1.2221   1.2277   1.2334   1.2392   1.2451   1.2511   1.2572
 Cp, KJ/(KG)(K)   34.9724  35.3623  35.7579  36.1593  36.5666  36.9797  37.3987  37.8236
 GAMMAs            1.2002   1.1994   1.1985   1.1977   1.1969   1.1961   1.1954   1.1946
 SON VEL,M/SEC     3952.7   3959.1   3965.6   3972.1   3978.7   3985.3   3991.9   3998.7

 TRANSPORT PROPERTIES (GASES ONLY)
   CONDUCTIVITY IN UNITS OF MILLIWATTS/(CM)(K)

 VISC,MILLIPOISE  0.47837  0.47996  0.48155  0.48315  0.48476  0.48638  0.48800  0.48964

  WITH EQUILIBRIUM REACTIONS

 Cp, KJ/(KG)(K)   34.9724  35.3623  35.7579  36.1593  36.5666  36.9797  37.3987  37.8236
 CONDUCTIVITY     33.7433  34.3242  34.9144  35.5139  36.1228  36.7412  37.3690  38.0063
 PRANDTL NUMBER    0.4958   0.4945   0.4932   0.4919   0.4907   0.4895   0.4884   0.4873

  WITH FROZEN REACTIONS

 Cp, KJ/(KG)(K)   18.5348  18.5470  18.5592  18.5714  18.5836  18.5958  18.6079  18.6201
 CONDUCTIVITY     12.6814  12.7338  12.7865  12.8395  12.8927  12.9462  13.0001  13.0542
 PRANDTL NUMBER    0.6992   0.6991   0.6990   0.6988   0.6987   0.6986   0.6985   0.6984

 MASS FRACTIONS

 *H               0.02472  0.02545  0.02620  0.02696  0.02774  0.02854  0.02935  0.03018
 *H2              0.97528  0.97455  0.97380  0.97304  0.97226  0.97146  0.97065  0.96982

  * THERMODYNAMIC PROPERTIES FITTED TO 20000.K

 NOTE. WEIGHT FRACTION OF FUEL IN TOTAL FUELS AND OF OXIDANT IN TOTAL OXIDANTS









               THERMODYNAMIC EQUILIBRIUM PROPERTIES AT ASSIGNED

                           TEMPERATURE AND PRESSURE

 CASE =                

             REACTANT                    WT FRACTION      ENERGY      TEMP
                                          (SEE NOTE)     KJ/KG-MOL      K  
 FUEL        H2                           1.0000000         0.000      0.000
 OXIDANT     H2                           1.0000000         0.000      0.000

 O/F=    1.00000  %FUEL= 50.000000  R,EQ.RATIO= 0.000000  PHI,EQ.RATIO=-1.000000

 THERMODYNAMIC PROPERTIES

 P, BAR            16.500   16.500   16.500   16.500   18.000   18.000   18.000   18.000
 T, K             3160.00  3170.00  3180.00  3190.00  3050.00  3060.00  3070.00  3080.00
 RHO, KG/CU M    1.2279-1 1.2230-1 1.2181-1 1.2132-1 1.4005-1 1.3951-1 1.3896-1 1.3842-1
 H, KJ/KG         54058.6  54443.3  54832.5  55226.0  49880.3  50213.9  50551.2  50892.0
 U, KJ/KG         40620.7  40951.6  41286.5  41625.5  37028.0  37311.2  37597.8  37887.8
 G, KJ/KG       -238370.9-239296.9-240224.1-241152.6-227143.7-228052.5-228962.4-229873.4
 S, KJ/(KG)(K)    92.5410  92.6625  92.7851  92.9087  90.8276  90.9367  91.0468  91.1576

 M, (1/n)           1.955    1.954    1.952    1.950    1.973    1.972    1.971    1.969
 (dLV/dLP)t      -1.01504 -1.01544 -1.01586 -1.01628 -1.01060 -1.01091 -1.01123 -1.01156
 (dLV/dLT)p        1.2634   1.2697   1.2761   1.2826   1.1922   1.1972   1.2024   1.2076
 Cp, KJ/(KG)(K)   38.2544  38.6912  39.1340  39.5828  33.1831  33.5404  33.9033  34.2716
 GAMMAs            1.1939   1.1932   1.1925   1.1918   1.2047   1.2038   1.2029   1.2020
 SON VEL,M/SEC     4005.4   4012.2   4019.1   4026.0   3934.8   3941.1   3947.4   3953.7

 TRANSPORT PROPERTIES (GASES ONLY)
   CONDUCTIVITY IN UNITS OF MILLIWATTS/(CM)(K)

 VISC,MILLIPOISE  0.49128  0.49293  0.49460  0.49626  0.47321  0.47475  0.47631  0.47787

  WITH EQUILIBRIUM REACTIONS

 Cp, KJ/(KG)(K)   38.2544  38.6912  39.1340  39.5828  33.1831  33.5404  33.9033  34.2716
 CONDUCTIVITY     38.6532  39.3096  39.9756  40.6512  31.2265  31.7591  32.3005  32.8507
 PRANDTL NUMBER    0.4862   0.4852   0.4842   0.4832   0.5029   0.5014   0.4999   0.4985

  WITH FROZEN REACTIONS

 Cp, KJ/(KG)(K)   18.6322  18.6444  18.6565  18.6686  18.4959  18.5081  18.5203  18.5325
 CONDUCTIVITY     13.1085  13.1632  13.2181  13.2734  12.5092  12.5602  12.6116  12.6633
 PRANDTL NUMBER    0.6983   0.6982   0.6981   0.6980   0.6997   0.6996   0.6995   0.6994

 MASS FRACTIONS

 *H               0.03103  0.03190  0.03279  0.03370  0.02167  0.02232  0.02299  0.02367
 *H2              0.96897  0.96810  0.96721  0.96630  0.97833  0.97768  0.97701  0.97633

  * THERMODYNAMIC PROPERTIES FITTED TO 20000.K

 NOTE. WEIGHT FRACTION OF FUEL IN TOTAL FUELS AND OF OXIDANT IN TOTAL OXIDANTS









               THERMODYNAMIC EQUILIBRIUM PROPERTIES AT ASSIGNED

                           TEMPERATURE AND PRESSURE

 CASE =                

             REACTANT                    WT FRACTION      ENERGY      TEMP
                                          (SEE NOTE)     KJ/KG-MOL      K  
 FUEL        H2                           1.0000000         0.000      0.000
 OXIDANT     H2                           1.0000000         0.000      0.000

 O/F=    1.00000  %FUEL= 50.000000  R,EQ.RATIO= 0.000000  PHI,EQ.RATIO=-1.000000

 THERMODYNAMIC PROPERTIES

 P, BAR            18.000   18.000   18.000   18.000   18.000   18.000   18.000   18.000
 T, K             3090.00  3100.00  3110.00  3120.00  3130.00  3140.00  3150.00  3160.00
 RHO, KG/CU M    1.3787-1 1.3733-1 1.3680-1 1.3626-1 1.3572-1 1.3519-1 1.3465-1 1.3412-1
 H, KJ/KG         51236.6  51585.0  51937.1  52293.2  52653.1  53017.1  53385.1  53757.2
 U, KJ/KG         38181.3  38478.3  38778.8  39082.9  39390.7  39702.2  40017.5  40336.5
 G, KJ/KG       -230785.5-231698.8-232613.2-233528.7-234445.4-235363.2-236282.2-237202.4
 S, KJ/(KG)(K)    91.2693  91.3819  91.4953  91.6096  91.7248  91.8409  91.9579  92.0758

 M, (1/n)           1.968    1.967    1.965    1.964    1.962    1.961    1.959    1.958
 (dLV/dLP)t      -1.01189 -1.01223 -1.01257 -1.01293 -1.01329 -1.01366 -1.01403 -1.01442
 (dLV/dLT)p        1.2128   1.2182   1.2237   1.2293   1.2350   1.2407   1.2466   1.2525
 Cp, KJ/(KG)(K)   34.6454  35.0247  35.4096  35.8001  36.1963  36.5980  37.0055  37.4186
 GAMMAs            1.2012   1.2004   1.1996   1.1987   1.1980   1.1972   1.1964   1.1957
 SON VEL,M/SEC     3960.1   3966.5   3972.9   3979.4   3986.0   3992.5   3999.2   4005.8

 TRANSPORT PROPERTIES (GASES ONLY)
   CONDUCTIVITY IN UNITS OF MILLIWATTS/(CM)(K)

 VISC,MILLIPOISE  0.47944  0.48102  0.48260  0.48420  0.48580  0.48741  0.48903  0.49066

  WITH EQUILIBRIUM REACTIONS

 Cp, KJ/(KG)(K)   34.6454  35.0247  35.4096  35.8001  36.1963  36.5980  37.0055  37.4186
 CONDUCTIVITY     33.4099  33.9781  34.5553  35.1415  35.7368  36.3413  36.9550  37.5779
 PRANDTL NUMBER    0.4972   0.4958   0.4945   0.4933   0.4920   0.4909   0.4897   0.4886

  WITH FROZEN REACTIONS

 Cp, KJ/(KG)(K)   18.5447  18.5569  18.5690  18.5811  18.5933  18.6054  18.6175  18.6295
 CONDUCTIVITY     12.7152  12.7674  12.8199  12.8726  12.9257  12.9790  13.0326  13.0864
 PRANDTL NUMBER    0.6992   0.6991   0.6990   0.6989   0.6988   0.6987   0.6986   0.6985

 MASS FRACTIONS

 *H               0.02437  0.02508  0.02581  0.02656  0.02732  0.02810  0.02890  0.02971
 *H2              0.97563  0.97492  0.97419  0.97344  0.97268  0.97190  0.97110  0.97029

  * THERMODYNAMIC PROPERTIES FITTED TO 20000.K

 NOTE. WEIGHT FRACTION OF FUEL IN TOTAL FUELS AND OF OXIDANT IN TOTAL OXIDANTS









               THERMODYNAMIC EQUILIBRIUM PROPERTIES AT ASSIGNED

                           TEMPERATURE AND PRESSURE

 CASE =                

             REACTANT                    WT FRACTION      ENERGY      TEMP
                                          (SEE NOTE)     KJ/KG-MOL      K  
 FUEL        H2                           1.0000000         0.000      0.000
 OXIDANT     H2                           1.0000000         0.000      0.000

 O/F=    1.00000  %FUEL= 50.000000  R,EQ.RATIO= 0.000000  PHI,EQ.RATIO=-1.000000

 THERMODYNAMIC PROPERTIES

 P, BAR            18.000   18.000   18.000   20.000   20.000   20.000   20.000   20.000
 T, K             3170.00  3180.00  3190.00  3050.00  3060.00  3070.00  3080.00  3090.00
 RHO, KG/CU M    1.3359-1 1.3306-1 1.3253-1 1.5578-1 1.5518-1 1.5458-1 1.5398-1 1.5338-1
 H, KJ/KG         54133.5  54514.0  54898.8  49626.8  49952.7  50282.1  50615.0  50951.4
 U, KJ/KG         40659.5  40986.3  41317.1  36788.4  37064.4  37343.7  37626.2  37912.0
 G, KJ/KG       -238123.7-239046.3-239970.0-225790.3-226693.8-227598.4-228504.1-229410.9
 S, KJ/(KG)(K)    92.1947  92.3145  92.4354  90.3007  90.4074  90.5148  90.6231  90.7321

 M, (1/n)           1.956    1.955    1.953    1.975    1.974    1.973    1.972    1.970
 (dLV/dLP)t      -1.01481 -1.01520 -1.01561 -1.01007 -1.01037 -1.01067 -1.01098 -1.01129
 (dLV/dLT)p        1.2586   1.2647   1.2710   1.1826   1.1873   1.1922   1.1972   1.2022
 Cp, KJ/(KG)(K)   37.8374  38.2620  38.6923  32.4279  32.7676  33.1125  33.4625  33.8178
 GAMMAs            1.1949   1.1942   1.1935   1.2069   1.2060   1.2052   1.2043   1.2034
 SON VEL,M/SEC     4012.6   4019.3   4026.2   3936.4   3942.6   3948.8   3955.0   3961.3

 TRANSPORT PROPERTIES (GASES ONLY)
   CONDUCTIVITY IN UNITS OF MILLIWATTS/(CM)(K)

 VISC,MILLIPOISE  0.49230  0.49394  0.49559  0.47267  0.47420  0.47574  0.47728  0.47884

  WITH EQUILIBRIUM REACTIONS

 Cp, KJ/(KG)(K)   37.8374  38.2620  38.6923  32.4279  32.7676  33.1125  33.4625  33.8178
 CONDUCTIVITY     38.2100  38.8514  39.5021  30.2671  30.7756  31.2926  31.8180  32.3520
 PRANDTL NUMBER    0.4875   0.4864   0.4854   0.5064   0.5049   0.5034   0.5020   0.5005

  WITH FROZEN REACTIONS

 Cp, KJ/(KG)(K)   18.6416  18.6537  18.6657  18.4935  18.5057  18.5178  18.5299  18.5420
 CONDUCTIVITY     13.1406  13.1950  13.2497  12.4897  12.5402  12.5910  12.6421  12.6935
 PRANDTL NUMBER    0.6984   0.6983   0.6982   0.6999   0.6998   0.6997   0.6996   0.6995

 MASS FRACTIONS

 *H               0.03054  0.03139  0.03226  0.02056  0.02118  0.02181  0.02246  0.02312
 *H2              0.96946  0.96861  0.96774  0.97944  0.97882  0.97819  0.97754  0.97688

  * THERMODYNAMIC PROPERTIES FITTED TO 20000.K

 NOTE. WEIGHT FRACTION OF FUEL IN TOTAL FUELS AND OF OXIDANT IN TOTAL OXIDANTS









               THERMODYNAMIC EQUILIBRIUM PROPERTIES AT ASSIGNED

                           TEMPERATURE AND PRESSURE

 CASE =                

             REACTANT                    WT FRACTION      ENERGY      TEMP
                                          (SEE NOTE)     KJ/KG-MOL      K  
 FUEL        H2                           1.0000000         0.000      0.000
 OXIDANT     H2                           1.0000000         0.000      0.000

 O/F=    1.00000  %FUEL= 50.000000  R,EQ.RATIO= 0.000000  PHI,EQ.RATIO=-1.000000

 THERMODYNAMIC PROPERTIES

 P, BAR            20.000   20.000   20.000   20.000   20.000   20.000   20.000   20.000
 T, K             3100.00  3110.00  3120.00  3130.00  3140.00  3150.00  3160.00  3170.00
 RHO, KG/CU M    1.5279-1 1.5219-1 1.5160-1 1.5101-1 1.5042-1 1.4983-1 1.4924-1 1.4866-1
 H, KJ/KG         51291.4  51635.0  51982.3  52333.3  52688.1  53046.8  53409.4  53775.9
 U, KJ/KG         38201.1  38493.6  38789.6  39089.0  39391.9  39698.4  40008.5  40322.3
 G, KJ/KG       -230318.7-231227.7-232137.8-233049.0-233961.3-234874.8-235789.4-236705.2
 S, KJ/(KG)(K)    90.8420  90.9526  91.0641  91.1765  91.2896  91.4037  91.5186  91.6344

 M, (1/n)           1.969    1.968    1.966    1.965    1.964    1.962    1.961    1.959
 (dLV/dLP)t      -1.01162 -1.01195 -1.01228 -1.01262 -1.01298 -1.01333 -1.01370 -1.01407
 (dLV/dLT)p        1.2073   1.2125   1.2178   1.2232   1.2287   1.2343   1.2400   1.2457
 Cp, KJ/(KG)(K)   34.1784  34.5442  34.9154  35.2919  35.6738  36.0610  36.4536  36.8517
 GAMMAs            1.2026   1.2018   1.2010   1.2002   1.1994   1.1986   1.1978   1.1971
 SON VEL,M/SEC     3967.7   3974.0   3980.4   3986.9   3993.4   3999.9   4006.5   4013.1

 TRANSPORT PROPERTIES (GASES ONLY)
   CONDUCTIVITY IN UNITS OF MILLIWATTS/(CM)(K)

 VISC,MILLIPOISE  0.48040  0.48197  0.48355  0.48513  0.48672  0.48832  0.48993  0.49155

  WITH EQUILIBRIUM REACTIONS

 Cp, KJ/(KG)(K)   34.1784  34.5442  34.9154  35.2919  35.6738  36.0610  36.4536  36.8517
 CONDUCTIVITY     32.8945  33.4457  34.0056  34.5742  35.1516  35.7377  36.3327  36.9366
 PRANDTL NUMBER    0.4991   0.4978   0.4965   0.4952   0.4940   0.4927   0.4916   0.4904

  WITH FROZEN REACTIONS

 Cp, KJ/(KG)(K)   18.5541  18.5662  18.5783  18.5903  18.6024  18.6144  18.6264  18.6384
 CONDUCTIVITY     12.7451  12.7970  12.8492  12.9017  12.9544  13.0074  13.0606  13.1142
 PRANDTL NUMBER    0.6994   0.6992   0.6991   0.6990   0.6989   0.6988   0.6987   0.6986

 MASS FRACTIONS

 *H               0.02380  0.02449  0.02520  0.02592  0.02666  0.02742  0.02819  0.02898
 *H2              0.97620  0.97551  0.97480  0.97408  0.97334  0.97258  0.97181  0.97102

  * THERMODYNAMIC PROPERTIES FITTED TO 20000.K

 NOTE. WEIGHT FRACTION OF FUEL IN TOTAL FUELS AND OF OXIDANT IN TOTAL OXIDANTS









               THERMODYNAMIC EQUILIBRIUM PROPERTIES AT ASSIGNED

                           TEMPERATURE AND PRESSURE

 CASE =                

             REACTANT                    WT FRACTION      ENERGY      TEMP
                                          (SEE NOTE)     KJ/KG-MOL      K  
 FUEL        H2                           1.0000000         0.000      0.000
 OXIDANT     H2                           1.0000000         0.000      0.000

 O/F=    1.00000  %FUEL= 50.000000  R,EQ.RATIO= 0.000000  PHI,EQ.RATIO=-1.000000

 THERMODYNAMIC PROPERTIES

 P, BAR            20.000   20.000   22.500   22.500   22.500   22.500   22.500   22.500
 T, K             3180.00  3190.00  3050.00  3060.00  3070.00  3080.00  3090.00  3100.00
 RHO, KG/CU M    1.4808-1 1.4749-1 1.7546-1 1.7478-1 1.7411-1 1.7344-1 1.7278-1 1.7211-1
 H, KJ/KG         54146.4  54521.0  49358.7  49676.5  49997.7  50322.1  50649.8  50981.0
 U, KJ/KG         40639.8  40961.1  36535.0  36803.5  37075.0  37349.6  37627.3  37908.1
 G, KJ/KG       -237622.1-238540.2-224279.0-225176.7-226075.4-226975.2-227876.1-228778.0
 S, KJ/(KG)(K)    91.7511  91.8687  89.7173  89.8213  89.9261  90.0316  90.1378  90.2448

 M, (1/n)           1.958    1.956    1.978    1.976    1.975    1.974    1.973    1.972
 (dLV/dLP)t      -1.01445 -1.01484 -1.00950 -1.00978 -1.01007 -1.01036 -1.01066 -1.01097
 (dLV/dLT)p        1.2516   1.2575   1.1723   1.1769   1.1814   1.1861   1.1909   1.1957
 Cp, KJ/(KG)(K)   37.2553  37.6643  31.6294  31.9503  32.2762  32.6070  32.9427  33.2833
 GAMMAs            1.1964   1.1957   1.2095   1.2086   1.2077   1.2068   1.2059   1.2051
 SON VEL,M/SEC     4019.8   4026.5   3938.2   3944.4   3950.5   3956.7   3962.9   3969.1

 TRANSPORT PROPERTIES (GASES ONLY)
   CONDUCTIVITY IN UNITS OF MILLIWATTS/(CM)(K)

 VISC,MILLIPOISE  0.49318  0.49481  0.47210  0.47361  0.47513  0.47666  0.47820  0.47974

  WITH EQUILIBRIUM REACTIONS

 Cp, KJ/(KG)(K)   37.2553  37.6643  31.6294  31.9503  32.2762  32.6070  32.9427  33.2833
 CONDUCTIVITY     37.5494  38.1711  29.2501  29.7330  30.2240  30.7230  31.2301  31.7455
 PRANDTL NUMBER    0.4893   0.4882   0.5105   0.5089   0.5074   0.5059   0.5044   0.5030

  WITH FROZEN REACTIONS

 Cp, KJ/(KG)(K)   18.6504  18.6624  18.4909  18.5030  18.5151  18.5272  18.5392  18.5512
 CONDUCTIVITY     13.1680  13.2221  12.4688  12.5188  12.5691  12.6196  12.6703  12.7213
 PRANDTL NUMBER    0.6985   0.6984   0.7001   0.7000   0.6999   0.6998   0.6997   0.6996

 MASS FRACTIONS

 *H               0.02978  0.03061  0.01939  0.01997  0.02056  0.02117  0.02180  0.02244
 *H2              0.97022  0.96939  0.98061  0.98003  0.97944  0.97883  0.97820  0.97756

  * THERMODYNAMIC PROPERTIES FITTED TO 20000.K

 NOTE. WEIGHT FRACTION OF FUEL IN TOTAL FUELS AND OF OXIDANT IN TOTAL OXIDANTS









               THERMODYNAMIC EQUILIBRIUM PROPERTIES AT ASSIGNED

                           TEMPERATURE AND PRESSURE

 CASE =                

             REACTANT                    WT FRACTION      ENERGY      TEMP
                                          (SEE NOTE)     KJ/KG-MOL      K  
 FUEL        H2                           1.0000000         0.000      0.000
 OXIDANT     H2                           1.0000000         0.000      0.000

 O/F=    1.00000  %FUEL= 50.000000  R,EQ.RATIO= 0.000000  PHI,EQ.RATIO=-1.000000

 THERMODYNAMIC PROPERTIES

 P, BAR            22.500   22.500   22.500   22.500   22.500   22.500   22.500   22.500
 T, K             3110.00  3120.00  3130.00  3140.00  3150.00  3160.00  3170.00  3180.00
 RHO, KG/CU M    1.7145-1 1.7079-1 1.7013-1 1.6947-1 1.6882-1 1.6816-1 1.6751-1 1.6686-1
 H, KJ/KG         51315.5  51653.5  51995.1  52340.3  52689.1  53041.5  53397.7  53757.7
 U, KJ/KG         38192.1  38479.4  38769.9  39063.8  39361.0  39661.7  39965.8  40273.5
 G, KJ/KG       -229681.0-230585.0-231490.2-232396.4-233303.8-234212.3-235121.9-236032.6
 S, KJ/(KG)(K)    90.3526  90.4611  90.5704  90.6805  90.7914  90.9031  91.0156  91.1290

 M, (1/n)           1.970    1.969    1.968    1.966    1.965    1.964    1.962    1.961
 (dLV/dLP)t      -1.01128 -1.01160 -1.01192 -1.01225 -1.01259 -1.01294 -1.01329 -1.01365
 (dLV/dLT)p        1.2007   1.2057   1.2108   1.2160   1.2213   1.2266   1.2321   1.2376
 Cp, KJ/(KG)(K)   33.6290  33.9797  34.3354  34.6962  35.0620  35.4330  35.8091  36.1904
 GAMMAs            1.2043   1.2034   1.2026   1.2018   1.2010   1.2003   1.1995   1.1988
 SON VEL,M/SEC     3975.4   3981.7   3988.1   3994.5   4001.0   4007.4   4014.0   4020.5

 TRANSPORT PROPERTIES (GASES ONLY)
   CONDUCTIVITY IN UNITS OF MILLIWATTS/(CM)(K)

 VISC,MILLIPOISE  0.48129  0.48285  0.48441  0.48599  0.48757  0.48916  0.49076  0.49236

  WITH EQUILIBRIUM REACTIONS

 Cp, KJ/(KG)(K)   33.6290  33.9797  34.3354  34.6962  35.0620  35.4330  35.8091  36.1904
 CONDUCTIVITY     32.2690  32.8008  33.3409  33.8894  34.4462  35.0115  35.5853  36.1675
 PRANDTL NUMBER    0.5016   0.5002   0.4989   0.4976   0.4963   0.4950   0.4938   0.4927

  WITH FROZEN REACTIONS

 Cp, KJ/(KG)(K)   18.5633  18.5753  18.5872  18.5992  18.6112  18.6231  18.6350  18.6469
 CONDUCTIVITY     12.7726  12.8242  12.8760  12.9281  12.9804  13.0330  13.0859  13.1390
 PRANDTL NUMBER    0.6995   0.6994   0.6993   0.6992   0.6991   0.6990   0.6989   0.6988

 MASS FRACTIONS

 *H               0.02309  0.02376  0.02444  0.02514  0.02585  0.02658  0.02732  0.02808
 *H2              0.97691  0.97624  0.97556  0.97486  0.97415  0.97342  0.97268  0.97192

  * THERMODYNAMIC PROPERTIES FITTED TO 20000.K

 NOTE. WEIGHT FRACTION OF FUEL IN TOTAL FUELS AND OF OXIDANT IN TOTAL OXIDANTS









               THERMODYNAMIC EQUILIBRIUM PROPERTIES AT ASSIGNED

                           TEMPERATURE AND PRESSURE

 CASE =                

             REACTANT                    WT FRACTION      ENERGY      TEMP
                                          (SEE NOTE)     KJ/KG-MOL      K  
 FUEL        H2                           1.0000000         0.000      0.000
 OXIDANT     H2                           1.0000000         0.000      0.000

 O/F=    1.00000  %FUEL= 50.000000  R,EQ.RATIO= 0.000000  PHI,EQ.RATIO=-1.000000

 THERMODYNAMIC PROPERTIES

 P, BAR            22.500   25.000   25.000   25.000   25.000   25.000   25.000   25.000
 T, K             3190.00  3050.00  3060.00  3070.00  3080.00  3090.00  3100.00  3110.00
 RHO, KG/CU M    1.6621-1 1.9514-1 1.9440-1 1.9366-1 1.9292-1 1.9219-1 1.9145-1 1.9072-1
 H, KJ/KG         54121.6  49131.8  49442.9  49757.0  50074.3  50394.7  50718.3  51045.2
 U, KJ/KG         40584.7  36320.7  36582.8  36847.7  37115.6  37386.4  37660.2  37937.0
 G, KJ/KG       -236944.4-222928.6-223821.1-224714.6-225609.2-226504.7-227401.4-228299.1
 S, KJ/(KG)(K)    91.2433  89.2001  89.3019  89.4044  89.5076  89.6115  89.7160  89.8213

 M, (1/n)           1.959    1.979    1.978    1.977    1.976    1.975    1.974    1.973
 (dLV/dLP)t      -1.01401 -1.00903 -1.00929 -1.00956 -1.00984 -1.01013 -1.01042 -1.01071
 (dLV/dLT)p        1.2432   1.1637   1.1680   1.1723   1.1768   1.1813   1.1859   1.1906
 Cp, KJ/(KG)(K)   36.5768  30.9537  31.2588  31.5686  31.8830  32.2021  32.5260  32.8545
 GAMMAs            1.1981   1.2117   1.2108   1.2099   1.2090   1.2082   1.2073   1.2065
 SON VEL,M/SEC     4027.1   3940.0   3946.0   3952.1   3958.2   3964.4   3970.6   3976.8

 TRANSPORT PROPERTIES (GASES ONLY)
   CONDUCTIVITY IN UNITS OF MILLIWATTS/(CM)(K)

 VISC,MILLIPOISE  0.49397  0.47161  0.47311  0.47461  0.47613  0.47765  0.47918  0.48071

  WITH EQUILIBRIUM REACTIONS

 Cp, KJ/(KG)(K)   36.5768  30.9537  31.2588  31.5686  31.8830  32.2021  32.5260  32.8545
 CONDUCTIVITY     36.7583  28.3876  28.8487  29.3176  29.7941  30.2785  30.7706  31.2706
 PRANDTL NUMBER    0.4915   0.5142   0.5126   0.5111   0.5095   0.5080   0.5065   0.5051

  WITH FROZEN REACTIONS

 Cp, KJ/(KG)(K)   18.6588  18.4888  18.5008  18.5128  18.5249  18.5368  18.5488  18.5608
 CONDUCTIVITY     13.1924  12.4511  12.5005  12.5503  12.6003  12.6505  12.7010  12.7518
 PRANDTL NUMBER    0.6987   0.7003   0.7002   0.7001   0.7000   0.6999   0.6998   0.6997

 MASS FRACTIONS

 *H               0.02886  0.01839  0.01894  0.01951  0.02009  0.02068  0.02129  0.02191
 *H2              0.97114  0.98161  0.98106  0.98049  0.97991  0.97932  0.97871  0.97809

  * THERMODYNAMIC PROPERTIES FITTED TO 20000.K

 NOTE. WEIGHT FRACTION OF FUEL IN TOTAL FUELS AND OF OXIDANT IN TOTAL OXIDANTS









               THERMODYNAMIC EQUILIBRIUM PROPERTIES AT ASSIGNED

                           TEMPERATURE AND PRESSURE

 CASE =                

             REACTANT                    WT FRACTION      ENERGY      TEMP
                                          (SEE NOTE)     KJ/KG-MOL      K  
 FUEL        H2                           1.0000000         0.000      0.000
 OXIDANT     H2                           1.0000000         0.000      0.000

 O/F=    1.00000  %FUEL= 50.000000  R,EQ.RATIO= 0.000000  PHI,EQ.RATIO=-1.000000

 THERMODYNAMIC PROPERTIES

 P, BAR            25.000   25.000   25.000   25.000   25.000   25.000   25.000   25.000
 T, K             3120.00  3130.00  3140.00  3150.00  3160.00  3170.00  3180.00  3190.00
 RHO, KG/CU M    1.8999-1 1.8926-1 1.8854-1 1.8782-1 1.8710-1 1.8638-1 1.8566-1 1.8495-1
 H, KJ/KG         51375.4  51709.0  52046.0  52386.4  52730.3  53077.8  53428.9  53783.6
 U, KJ/KG         38216.9  38500.0  38786.2  39075.6  39368.2  39664.2  39963.5  40266.2
 G, KJ/KG       -229197.8-230097.6-230998.5-231900.5-232803.5-233707.6-234612.9-235519.2
 S, KJ/(KG)(K)    89.9273  90.0341  90.1415  90.2498  90.3588  90.4686  90.5792  90.6905

 M, (1/n)           1.971    1.970    1.969    1.968    1.966    1.965    1.964    1.962
 (dLV/dLP)t      -1.01102 -1.01132 -1.01164 -1.01196 -1.01229 -1.01262 -1.01297 -1.01331
 (dLV/dLT)p        1.1954   1.2002   1.2052   1.2102   1.2153   1.2205   1.2258   1.2311
 Cp, KJ/(KG)(K)   33.1879  33.5260  33.8689  34.2167  34.5693  34.9268  35.2891  35.6564
 GAMMAs            1.2056   1.2048   1.2040   1.2032   1.2025   1.2017   1.2009   1.2002
 SON VEL,M/SEC     3983.0   3989.3   3995.6   4002.0   4008.4   4014.9   4021.3   4027.9

 TRANSPORT PROPERTIES (GASES ONLY)
   CONDUCTIVITY IN UNITS OF MILLIWATTS/(CM)(K)

 VISC,MILLIPOISE  0.48225  0.48380  0.48536  0.48692  0.48850  0.49008  0.49166  0.49326

  WITH EQUILIBRIUM REACTIONS

 Cp, KJ/(KG)(K)   33.1879  33.5260  33.8689  34.2167  34.5693  34.9268  35.2891  35.6564
 CONDUCTIVITY     31.7784  32.2943  32.8181  33.3500  33.8899  34.4380  34.9942  35.5585
 PRANDTL NUMBER    0.5036   0.5023   0.5009   0.4996   0.4983   0.4970   0.4958   0.4946

  WITH FROZEN REACTIONS

 Cp, KJ/(KG)(K)   18.5727  18.5846  18.5965  18.6084  18.6203  18.6322  18.6440  18.6558
 CONDUCTIVITY     12.8028  12.8540  12.9055  12.9573  13.0093  13.0616  13.1142  13.1670
 PRANDTL NUMBER    0.6996   0.6995   0.6994   0.6993   0.6992   0.6991   0.6990   0.6989

 MASS FRACTIONS

 *H               0.02254  0.02319  0.02385  0.02452  0.02522  0.02592  0.02664  0.02738
 *H2              0.97746  0.97681  0.97615  0.97548  0.97478  0.97408  0.97336  0.97262

  * THERMODYNAMIC PROPERTIES FITTED TO 20000.K

 NOTE. WEIGHT FRACTION OF FUEL IN TOTAL FUELS AND OF OXIDANT IN TOTAL OXIDANTS









               THERMODYNAMIC EQUILIBRIUM PROPERTIES AT ASSIGNED

                           TEMPERATURE AND PRESSURE

 CASE =                

             REACTANT                    WT FRACTION      ENERGY      TEMP
                                          (SEE NOTE)     KJ/KG-MOL      K  
 FUEL        H2                           1.0000000         0.000      0.000
 OXIDANT     H2                           1.0000000         0.000      0.000

 O/F=    1.00000  %FUEL= 50.000000  R,EQ.RATIO= 0.000000  PHI,EQ.RATIO=-1.000000

 THERMODYNAMIC PROPERTIES

 P, BAR            28.000   28.000   28.000   28.000   28.000   28.000   28.000   28.000
 T, K             3050.00  3060.00  3070.00  3080.00  3090.00  3100.00  3110.00  3120.00
 RHO, KG/CU M    2.1878-1 2.1795-1 2.1713-1 2.1631-1 2.1549-1 2.1467-1 2.1386-1 2.1305-1
 H, KJ/KG         48900.8  49204.9  49511.9  49821.9  50134.8  50450.8  50769.9  51092.2
 U, KJ/KG         36102.4  36358.0  36616.2  36877.2  37141.0  37407.7  37677.2  37949.6
 G, KJ/KG       -221477.5-222364.4-223252.4-224141.4-225031.4-225922.4-226814.4-227707.5
 S, KJ/(KG)(K)    88.6486  88.7481  88.8483  88.9491  89.0505  89.1527  89.2554  89.3589

 M, (1/n)           1.981    1.980    1.979    1.978    1.977    1.976    1.975    1.974
 (dLV/dLP)t      -1.00854 -1.00879 -1.00905 -1.00931 -1.00958 -1.00985 -1.01014 -1.01042
 (dLV/dLT)p        1.1548   1.1589   1.1630   1.1672   1.1715   1.1759   1.1803   1.1849
 Cp, KJ/(KG)(K)   30.2655  30.5544  30.8478  31.1456  31.4478  31.7544  32.0656  32.3812
 GAMMAs            1.2141   1.2132   1.2123   1.2114   1.2106   1.2097   1.2089   1.2080
 SON VEL,M/SEC     3941.9   3947.9   3953.9   3960.0   3966.1   3972.2   3978.4   3984.5

 TRANSPORT PROPERTIES (GASES ONLY)
   CONDUCTIVITY IN UNITS OF MILLIWATTS/(CM)(K)

 VISC,MILLIPOISE  0.47111  0.47259  0.47408  0.47558  0.47709  0.47860  0.48012  0.48164

  WITH EQUILIBRIUM REACTIONS

 Cp, KJ/(KG)(K)   30.2655  30.5544  30.8478  31.1456  31.4478  31.7544  32.0656  32.3812
 CONDUCTIVITY     27.5072  27.9461  28.3923  28.8458  29.3067  29.7751  30.2509  30.7343
 PRANDTL NUMBER    0.5183   0.5167   0.5151   0.5135   0.5119   0.5104   0.5089   0.5075

  WITH FROZEN REACTIONS

 Cp, KJ/(KG)(K)   18.4866  18.4986  18.5105  18.5225  18.5344  18.5463  18.5582  18.5701
 CONDUCTIVITY     12.4328  12.4818  12.5310  12.5805  12.6302  12.6801  12.7303  12.7807
 PRANDTL NUMBER    0.7005   0.7004   0.7003   0.7002   0.7001   0.7000   0.6999   0.6998

 MASS FRACTIONS

 *H               0.01738  0.01790  0.01844  0.01898  0.01954  0.02011  0.02070  0.02130
 *H2              0.98262  0.98210  0.98156  0.98102  0.98046  0.97989  0.97930  0.97870

  * THERMODYNAMIC PROPERTIES FITTED TO 20000.K

 NOTE. WEIGHT FRACTION OF FUEL IN TOTAL FUELS AND OF OXIDANT IN TOTAL OXIDANTS









               THERMODYNAMIC EQUILIBRIUM PROPERTIES AT ASSIGNED

                           TEMPERATURE AND PRESSURE

 CASE =                

             REACTANT                    WT FRACTION      ENERGY      TEMP
                                          (SEE NOTE)     KJ/KG-MOL      K  
 FUEL        H2                           1.0000000         0.000      0.000
 OXIDANT     H2                           1.0000000         0.000      0.000

 O/F=    1.00000  %FUEL= 50.000000  R,EQ.RATIO= 0.000000  PHI,EQ.RATIO=-1.000000

 THERMODYNAMIC PROPERTIES

 P, BAR            28.000   28.000   28.000   28.000   28.000   28.000   28.000   31.000
 T, K             3130.00  3140.00  3150.00  3160.00  3170.00  3180.00  3190.00  3050.00
 RHO, KG/CU M    2.1224-1 2.1144-1 2.1063-1 2.0983-1 2.0903-1 2.0824-1 2.0744-1 2.4242-1
 H, KJ/KG         51417.6  51746.2  52078.1  52413.3  52751.9  53093.9  53439.3  48704.2
 U, KJ/KG         38225.0  38503.4  38784.8  39069.3  39357.0  39647.8  39941.8  35916.7
 G, KJ/KG       -228601.6-229496.8-230393.0-231290.2-232188.6-233088.0-233988.4-220175.4
 S, KJ/(KG)(K)    89.4630  89.5678  89.6734  89.7796  89.8866  89.9943  90.1028  88.1572

 M, (1/n)           1.973    1.971    1.970    1.969    1.968    1.966    1.965    1.983
 (dLV/dLP)t      -1.01071 -1.01101 -1.01132 -1.01163 -1.01195 -1.01227 -1.01260 -1.00812
 (dLV/dLT)p        1.1895   1.1941   1.1989   1.2037   1.2087   1.2137   1.2187   1.1473
 Cp, KJ/(KG)(K)   32.7014  33.0262  33.3555  33.6893  34.0279  34.3710  34.7188  29.6796
 GAMMAs            1.2072   1.2064   1.2056   1.2048   1.2040   1.2033   1.2025   1.2163
 SON VEL,M/SEC     3990.8   3997.0   4003.3   4009.6   4016.0   4022.4   4028.8   3943.7

 TRANSPORT PROPERTIES (GASES ONLY)
   CONDUCTIVITY IN UNITS OF MILLIWATTS/(CM)(K)

 VISC,MILLIPOISE  0.48317  0.48471  0.48626  0.48782  0.48938  0.49095  0.49252  0.47068

  WITH EQUILIBRIUM REACTIONS

 Cp, KJ/(KG)(K)   32.7014  33.0262  33.3555  33.6893  34.0279  34.3710  34.7188  29.6796
 CONDUCTIVITY     31.2253  31.7238  32.2301  32.7440  33.2657  33.7952  34.3324  26.7564
 PRANDTL NUMBER    0.5060   0.5046   0.5032   0.5019   0.5006   0.4993   0.4981   0.5221

  WITH FROZEN REACTIONS

 Cp, KJ/(KG)(K)   18.5820  18.5938  18.6056  18.6174  18.6292  18.6410  18.6528  18.4847
 CONDUCTIVITY     12.8314  12.8823  12.9335  12.9850  13.0366  13.0886  13.1408  12.4172
 PRANDTL NUMBER    0.6997   0.6996   0.6995   0.6994   0.6993   0.6992   0.6991   0.7007

 MASS FRACTIONS

 *H               0.02191  0.02254  0.02317  0.02383  0.02449  0.02518  0.02587  0.01652
 *H2              0.97809  0.97746  0.97683  0.97617  0.97551  0.97482  0.97413  0.98348

  * THERMODYNAMIC PROPERTIES FITTED TO 20000.K

 NOTE. WEIGHT FRACTION OF FUEL IN TOTAL FUELS AND OF OXIDANT IN TOTAL OXIDANTS









               THERMODYNAMIC EQUILIBRIUM PROPERTIES AT ASSIGNED

                           TEMPERATURE AND PRESSURE

 CASE =                

             REACTANT                    WT FRACTION      ENERGY      TEMP
                                          (SEE NOTE)     KJ/KG-MOL      K  
 FUEL        H2                           1.0000000         0.000      0.000
 OXIDANT     H2                           1.0000000         0.000      0.000

 O/F=    1.00000  %FUEL= 50.000000  R,EQ.RATIO= 0.000000  PHI,EQ.RATIO=-1.000000

 THERMODYNAMIC PROPERTIES

 P, BAR            31.000   31.000   31.000   31.000   31.000   31.000   31.000   31.000
 T, K             3060.00  3070.00  3080.00  3090.00  3100.00  3110.00  3120.00  3130.00
 RHO, KG/CU M    2.4151-1 2.4061-1 2.3970-1 2.3880-1 2.3791-1 2.3701-1 2.3612-1 2.3523-1
 H, KJ/KG         49002.3  49303.3  49607.0  49913.7  50223.2  50535.6  50851.1  51169.5
 U, KJ/KG         36166.6  36419.2  36674.4  36932.2  37192.8  37456.1  37722.1  37991.0
 G, KJ/KG       -221057.4-221940.4-222824.4-223709.5-224595.5-225482.5-226370.5-227259.5
 S, KJ/(KG)(K)    88.2548  88.3530  88.4518  88.5512  88.6512  88.7518  88.8531  88.9550

 M, (1/n)           1.982    1.981    1.980    1.979    1.978    1.977    1.976    1.975
 (dLV/dLP)t      -1.00836 -1.00861 -1.00886 -1.00911 -1.00938 -1.00964 -1.00992 -1.01019
 (dLV/dLT)p        1.1511   1.1551   1.1591   1.1632   1.1673   1.1716   1.1759   1.1803
 Cp, KJ/(KG)(K)   29.9549  30.2343  30.5179  30.8057  31.0977  31.3940  31.6946  31.9995
 GAMMAs            1.2154   1.2145   1.2136   1.2127   1.2118   1.2110   1.2102   1.2093
 SON VEL,M/SEC     3949.7   3955.7   3961.7   3967.7   3973.8   3979.9   3986.0   3992.1

 TRANSPORT PROPERTIES (GASES ONLY)
   CONDUCTIVITY IN UNITS OF MILLIWATTS/(CM)(K)

 VISC,MILLIPOISE  0.47215  0.47363  0.47511  0.47660  0.47810  0.47961  0.48112  0.48264

  WITH EQUILIBRIUM REACTIONS

 Cp, KJ/(KG)(K)   29.9549  30.2343  30.5179  30.8057  31.0977  31.3940  31.6946  31.9995
 CONDUCTIVITY     27.1762  27.6030  28.0369  28.4778  28.9258  29.3810  29.8434  30.3130
 PRANDTL NUMBER    0.5204   0.5188   0.5172   0.5156   0.5140   0.5125   0.5110   0.5095

  WITH FROZEN REACTIONS

 Cp, KJ/(KG)(K)   18.4966  18.5086  18.5205  18.5323  18.5442  18.5561  18.5679  18.5797
 CONDUCTIVITY     12.4657  12.5145  12.5635  12.6127  12.6622  12.7119  12.7618  12.8120
 PRANDTL NUMBER    0.7006   0.7005   0.7004   0.7003   0.7002   0.7001   0.7000   0.6999

 MASS FRACTIONS

 *H               0.01701  0.01752  0.01804  0.01857  0.01912  0.01967  0.02024  0.02082
 *H2              0.98299  0.98248  0.98196  0.98143  0.98088  0.98033  0.97976  0.97918

  * THERMODYNAMIC PROPERTIES FITTED TO 20000.K

 NOTE. WEIGHT FRACTION OF FUEL IN TOTAL FUELS AND OF OXIDANT IN TOTAL OXIDANTS









               THERMODYNAMIC EQUILIBRIUM PROPERTIES AT ASSIGNED

                           TEMPERATURE AND PRESSURE

 CASE =                

             REACTANT                    WT FRACTION      ENERGY      TEMP
                                          (SEE NOTE)     KJ/KG-MOL      K  
 FUEL        H2                           1.0000000         0.000      0.000
 OXIDANT     H2                           1.0000000         0.000      0.000

 O/F=    1.00000  %FUEL= 50.000000  R,EQ.RATIO= 0.000000  PHI,EQ.RATIO=-1.000000

 THERMODYNAMIC PROPERTIES

 P, BAR            31.000   31.000   31.000   31.000   31.000   31.000   35.000   35.000
 T, K             3140.00  3150.00  3160.00  3170.00  3180.00  3190.00  3050.00  3060.00
 RHO, KG/CU M    2.3435-1 2.3346-1 2.3258-1 2.3171-1 2.3083-1 2.2996-1 2.7397-1 2.7295-1
 H, KJ/KG         51491.1  51815.7  52143.5  52474.5  52808.8  53146.3  48482.4  48773.9
 U, KJ/KG         38262.7  38537.4  38814.9  39095.5  39379.0  39665.6  35707.1  35950.8
 G, KJ/KG       -228149.6-229040.7-229932.8-230826.0-231720.2-232615.5-218624.2-219500.4
 S, KJ/(KG)(K)    89.0575  89.1608  89.2647  89.3693  89.4745  89.5805  87.5759  87.6713

 M, (1/n)           1.974    1.972    1.971    1.970    1.969    1.968    1.985    1.984
 (dLV/dLP)t      -1.01048 -1.01077 -1.01107 -1.01137 -1.01168 -1.01199 -1.00765 -1.00788
 (dLV/dLT)p        1.1847   1.1893   1.1939   1.1986   1.2033   1.2082   1.1387   1.1424
 Cp, KJ/(KG)(K)   32.3087  32.6223  32.9403  33.2626  33.5893  33.9205  29.0189  29.2786
 GAMMAs            1.2085   1.2077   1.2069   1.2061   1.2054   1.2046   1.2188   1.2179
 SON VEL,M/SEC     3998.3   4004.5   4010.8   4017.1   4023.4   4029.8   3945.9   3951.8

 TRANSPORT PROPERTIES (GASES ONLY)
   CONDUCTIVITY IN UNITS OF MILLIWATTS/(CM)(K)

 VISC,MILLIPOISE  0.48416  0.48569  0.48723  0.48878  0.49033  0.49189  0.47019  0.47165

  WITH EQUILIBRIUM REACTIONS

 Cp, KJ/(KG)(K)   32.3087  32.6223  32.9403  33.2626  33.5893  33.9205  29.0189  29.2786
 CONDUCTIVITY     30.7899  31.2742  31.7659  32.2650  32.7715  33.2856  25.9079  26.3062
 PRANDTL NUMBER    0.5080   0.5066   0.5052   0.5039   0.5026   0.5013   0.5267   0.5249

  WITH FROZEN REACTIONS

 Cp, KJ/(KG)(K)   18.5915  18.6033  18.6150  18.6268  18.6385  18.6502  18.4826  18.4945
 CONDUCTIVITY     12.8624  12.9131  12.9640  13.0151  13.0665  13.1182  12.3994  12.4474
 PRANDTL NUMBER    0.6998   0.6997   0.6996   0.6995   0.6994   0.6993   0.7009   0.7008

 MASS FRACTIONS

 *H               0.02142  0.02202  0.02265  0.02328  0.02393  0.02459  0.01554  0.01601
 *H2              0.97858  0.97798  0.97735  0.97672  0.97607  0.97541  0.98446  0.98399

  * THERMODYNAMIC PROPERTIES FITTED TO 20000.K

 NOTE. WEIGHT FRACTION OF FUEL IN TOTAL FUELS AND OF OXIDANT IN TOTAL OXIDANTS









               THERMODYNAMIC EQUILIBRIUM PROPERTIES AT ASSIGNED

                           TEMPERATURE AND PRESSURE

 CASE =                

             REACTANT                    WT FRACTION      ENERGY      TEMP
                                          (SEE NOTE)     KJ/KG-MOL      K  
 FUEL        H2                           1.0000000         0.000      0.000
 OXIDANT     H2                           1.0000000         0.000      0.000

 O/F=    1.00000  %FUEL= 50.000000  R,EQ.RATIO= 0.000000  PHI,EQ.RATIO=-1.000000

 THERMODYNAMIC PROPERTIES

 P, BAR            35.000   35.000   35.000   35.000   35.000   35.000   35.000   35.000
 T, K             3070.00  3080.00  3090.00  3100.00  3110.00  3120.00  3130.00  3140.00
 RHO, KG/CU M    2.7193-1 2.7092-1 2.6991-1 2.6890-1 2.6790-1 2.6690-1 2.6590-1 2.6491-1
 H, KJ/KG         49068.0  49364.8  49664.2  49966.4  50271.4  50579.2  50889.8  51203.3
 U, KJ/KG         36197.0  36445.6  36696.7  36950.4  37206.7  37465.5  37727.1  37991.3
 G, KJ/KG       -220377.6-221255.8-222134.9-223015.0-223896.0-224778.1-225661.2-226545.2
 S, KJ/(KG)(K)    87.7673  87.8638  87.9609  88.0585  88.1567  88.2555  88.3549  88.4549

 M, (1/n)           1.983    1.982    1.981    1.980    1.979    1.978    1.977    1.976
 (dLV/dLP)t      -1.00811 -1.00835 -1.00859 -1.00883 -1.00909 -1.00934 -1.00961 -1.00988
 (dLV/dLT)p        1.1461   1.1499   1.1537   1.1577   1.1617   1.1657   1.1699   1.1741
 Cp, KJ/(KG)(K)   29.5423  29.8099  30.0814  30.3570  30.6365  30.9201  31.2078  31.4995
 GAMMAs            1.2170   1.2161   1.2152   1.2144   1.2135   1.2127   1.2118   1.2110
 SON VEL,M/SEC     3957.8   3963.7   3969.7   3975.7   3981.7   3987.8   3993.9   4000.0

 TRANSPORT PROPERTIES (GASES ONLY)
   CONDUCTIVITY IN UNITS OF MILLIWATTS/(CM)(K)

 VISC,MILLIPOISE  0.47311  0.47458  0.47606  0.47754  0.47903  0.48052  0.48202  0.48353

  WITH EQUILIBRIUM REACTIONS

 Cp, KJ/(KG)(K)   29.5423  29.8099  30.0814  30.3570  30.6365  30.9201  31.2078  31.4995
 CONDUCTIVITY     26.7110  27.1225  27.5408  27.9657  28.3975  28.8360  29.2815  29.7339
 PRANDTL NUMBER    0.5233   0.5216   0.5200   0.5184   0.5168   0.5153   0.5137   0.5122

  WITH FROZEN REACTIONS

 Cp, KJ/(KG)(K)   18.5063  18.5182  18.5300  18.5418  18.5536  18.5654  18.5771  18.5889
 CONDUCTIVITY     12.4957  12.5441  12.5928  12.6417  12.6909  12.7403  12.7899  12.8397
 PRANDTL NUMBER    0.7007   0.7006   0.7005   0.7004   0.7003   0.7002   0.7001   0.7000

 MASS FRACTIONS

 *H               0.01649  0.01698  0.01748  0.01799  0.01852  0.01905  0.01960  0.02016
 *H2              0.98351  0.98302  0.98252  0.98201  0.98148  0.98095  0.98040  0.97984

  * THERMODYNAMIC PROPERTIES FITTED TO 20000.K

 NOTE. WEIGHT FRACTION OF FUEL IN TOTAL FUELS AND OF OXIDANT IN TOTAL OXIDANTS









               THERMODYNAMIC EQUILIBRIUM PROPERTIES AT ASSIGNED

                           TEMPERATURE AND PRESSURE

 CASE =                

             REACTANT                    WT FRACTION      ENERGY      TEMP
                                          (SEE NOTE)     KJ/KG-MOL      K  
 FUEL        H2                           1.0000000         0.000      0.000
 OXIDANT     H2                           1.0000000         0.000      0.000

 O/F=    1.00000  %FUEL= 50.000000  R,EQ.RATIO= 0.000000  PHI,EQ.RATIO=-1.000000

 THERMODYNAMIC PROPERTIES

 P, BAR            35.000   35.000   35.000   35.000   35.000   39.000   39.000   39.000
 T, K             3150.00  3160.00  3170.00  3180.00  3190.00  3050.00  3060.00  3070.00
 RHO, KG/CU M    2.6392-1 2.6294-1 2.6195-1 2.6097-1 2.6000-1 3.0552-1 3.0439-1 3.0327-1
 H, KJ/KG         51519.8  51839.2  52161.7  52487.2  52815.9  48295.7  48581.6  48869.9
 U, KJ/KG         38258.3  38528.0  38800.6  39075.9  39354.2  35530.7  35769.2  36009.9
 G, KJ/KG       -227430.3-228316.3-229203.4-230091.5-230980.6-217242.3-218113.4-218985.4
 S, KJ/(KG)(K)    88.5556  88.6568  88.7587  88.8612  88.9644  87.0616  87.1552  87.2493

 M, (1/n)           1.975    1.974    1.973    1.971    1.970    1.987    1.986    1.985
 (dLV/dLP)t      -1.01015 -1.01043 -1.01071 -1.01101 -1.01130 -1.00725 -1.00747 -1.00769
 (dLV/dLT)p        1.1784   1.1827   1.1871   1.1916   1.1962   1.1315   1.1350   1.1385
 Cp, KJ/(KG)(K)   31.7953  32.0953  32.3994  32.7076  33.0200  28.4625  28.7092  28.9596
 GAMMAs            1.2102   1.2094   1.2086   1.2079   1.2071   1.2210   1.2201   1.2192
 SON VEL,M/SEC     4006.2   4012.3   4018.6   4024.8   4031.1   3948.0   3953.8   3959.7

 TRANSPORT PROPERTIES (GASES ONLY)
   CONDUCTIVITY IN UNITS OF MILLIWATTS/(CM)(K)

 VISC,MILLIPOISE  0.48505  0.48657  0.48810  0.48963  0.49117  0.46978  0.47122  0.47268

  WITH EQUILIBRIUM REACTIONS

 Cp, KJ/(KG)(K)   31.7953  32.0953  32.3994  32.7076  33.0200  28.4625  28.7092  28.9596
 CONDUCTIVITY     30.1933  30.6597  31.1331  31.6136  32.1013  25.1922  25.5722  25.9585
 PRANDTL NUMBER    0.5108   0.5094   0.5079   0.5066   0.5052   0.5308   0.5290   0.5273

  WITH FROZEN REACTIONS

 Cp, KJ/(KG)(K)   18.6006  18.6123  18.6240  18.6356  18.6473  18.4808  18.4927  18.5045
 CONDUCTIVITY     12.8898  12.9401  12.9907  13.0414  13.0925  12.3843  12.4319  12.4797
 PRANDTL NUMBER    0.6999   0.6999   0.6998   0.6997   0.6996   0.7010   0.7010   0.7009

 MASS FRACTIONS

 *H               0.02073  0.02131  0.02191  0.02252  0.02314  0.01473  0.01517  0.01562
 *H2              0.97927  0.97869  0.97809  0.97748  0.97686  0.98527  0.98483  0.98438

  * THERMODYNAMIC PROPERTIES FITTED TO 20000.K

 NOTE. WEIGHT FRACTION OF FUEL IN TOTAL FUELS AND OF OXIDANT IN TOTAL OXIDANTS









               THERMODYNAMIC EQUILIBRIUM PROPERTIES AT ASSIGNED

                           TEMPERATURE AND PRESSURE

 CASE =                

             REACTANT                    WT FRACTION      ENERGY      TEMP
                                          (SEE NOTE)     KJ/KG-MOL      K  
 FUEL        H2                           1.0000000         0.000      0.000
 OXIDANT     H2                           1.0000000         0.000      0.000

 O/F=    1.00000  %FUEL= 50.000000  R,EQ.RATIO= 0.000000  PHI,EQ.RATIO=-1.000000

 THERMODYNAMIC PROPERTIES

 P, BAR            39.000   39.000   39.000   39.000   39.000   39.000   39.000   39.000
 T, K             3080.00  3090.00  3100.00  3110.00  3120.00  3130.00  3140.00  3150.00
 RHO, KG/CU M    3.0214-1 3.0102-1 2.9991-1 2.9880-1 2.9769-1 2.9659-1 2.9549-1 2.9440-1
 H, KJ/KG         49160.8  49454.2  49750.2  50048.9  50350.2  50654.3  50961.1  51270.6
 U, KJ/KG         36253.0  36498.4  36746.3  36996.7  37249.5  37504.9  37762.8  38023.3
 G, KJ/KG       -219858.3-220732.3-221607.1-222483.0-223359.7-224237.5-225116.2-225996.0
 S, KJ/(KG)(K)    87.3439  87.4390  87.5346  87.6308  87.7276  87.8248  87.9227  88.0211

 M, (1/n)           1.984    1.983    1.982    1.981    1.980    1.979    1.978    1.977
 (dLV/dLP)t      -1.00791 -1.00814 -1.00838 -1.00862 -1.00886 -1.00911 -1.00937 -1.00963
 (dLV/dLT)p        1.1421   1.1458   1.1495   1.1533   1.1572   1.1611   1.1651   1.1692
 Cp, KJ/(KG)(K)   29.2137  29.4716  29.7332  29.9987  30.2680  30.5411  30.8181  31.0990
 GAMMAs            1.2183   1.2175   1.2166   1.2158   1.2149   1.2141   1.2133   1.2124
 SON VEL,M/SEC     3965.6   3971.6   3977.5   3983.5   3989.5   3995.5   4001.6   4007.7

 TRANSPORT PROPERTIES (GASES ONLY)
   CONDUCTIVITY IN UNITS OF MILLIWATTS/(CM)(K)

 VISC,MILLIPOISE  0.47413  0.47559  0.47706  0.47854  0.48002  0.48150  0.48300  0.48450

  WITH EQUILIBRIUM REACTIONS

 Cp, KJ/(KG)(K)   29.2137  29.4716  29.7332  29.9987  30.2680  30.5411  30.8181  31.0990
 CONDUCTIVITY     26.3511  26.7501  27.1555  27.5674  27.9859  28.4109  28.8425  29.2808
 PRANDTL NUMBER    0.5256   0.5240   0.5223   0.5207   0.5192   0.5176   0.5161   0.5146

  WITH FROZEN REACTIONS

 Cp, KJ/(KG)(K)   18.5163  18.5281  18.5398  18.5516  18.5633  18.5750  18.5867  18.5983
 CONDUCTIVITY     12.5277  12.5760  12.6244  12.6731  12.7220  12.7711  12.8204  12.8700
 PRANDTL NUMBER    0.7008   0.7007   0.7006   0.7005   0.7004   0.7003   0.7002   0.7001

 MASS FRACTIONS

 *H               0.01608  0.01656  0.01704  0.01754  0.01805  0.01857  0.01910  0.01964
 *H2              0.98392  0.98344  0.98296  0.98246  0.98195  0.98143  0.98090  0.98036

  * THERMODYNAMIC PROPERTIES FITTED TO 20000.K

 NOTE. WEIGHT FRACTION OF FUEL IN TOTAL FUELS AND OF OXIDANT IN TOTAL OXIDANTS









               THERMODYNAMIC EQUILIBRIUM PROPERTIES AT ASSIGNED

                           TEMPERATURE AND PRESSURE

 CASE =                

             REACTANT                    WT FRACTION      ENERGY      TEMP
                                          (SEE NOTE)     KJ/KG-MOL      K  
 FUEL        H2                           1.0000000         0.000      0.000
 OXIDANT     H2                           1.0000000         0.000      0.000

 O/F=    1.00000  %FUEL= 50.000000  R,EQ.RATIO= 0.000000  PHI,EQ.RATIO=-1.000000

 THERMODYNAMIC PROPERTIES

 P, BAR            39.000   39.000   39.000   39.000   44.000   44.000   44.000   44.000
 T, K             3160.00  3170.00  3180.00  3190.00  3050.00  3060.00  3070.00  3080.00
 RHO, KG/CU M    2.9331-1 2.9222-1 2.9114-1 2.9006-1 3.4499-1 3.4372-1 3.4245-1 3.4119-1
 H, KJ/KG         51583.0  51898.3  52216.5  52537.6  48099.2  48379.1  48661.4  48946.0
 U, KJ/KG         38286.4  38552.3  38820.8  39092.0  35345.0  35577.9  35812.9  36050.2
 G, KJ/KG       -226876.7-227758.4-228641.1-229524.8-215703.1-216568.5-217434.8-218302.0
 S, KJ/(KG)(K)    88.1202  88.2198  88.3200  88.4208  86.4926  86.5842  86.6763  86.7689

 M, (1/n)           1.976    1.975    1.974    1.973    1.988    1.987    1.987    1.986
 (dLV/dLP)t      -1.00989 -1.01016 -1.01044 -1.01072 -1.00684 -1.00704 -1.00725 -1.00746
 (dLV/dLT)p        1.1733   1.1775   1.1818   1.1861   1.1239   1.1272   1.1305   1.1339
 Cp, KJ/(KG)(K)   31.3837  31.6724  31.9651  32.2617  27.8768  28.1097  28.3461  28.5860
 GAMMAs            1.2116   1.2109   1.2101   1.2093   1.2235   1.2226   1.2217   1.2208
 SON VEL,M/SEC     4013.8   4020.0   4026.2   4032.4   3950.2   3956.1   3961.9   3967.8

 TRANSPORT PROPERTIES (GASES ONLY)
   CONDUCTIVITY IN UNITS OF MILLIWATTS/(CM)(K)

 VISC,MILLIPOISE  0.48600  0.48752  0.48904  0.49056  0.46934  0.47078  0.47221  0.47365

  WITH EQUILIBRIUM REACTIONS

 Cp, KJ/(KG)(K)   31.3837  31.6724  31.9651  32.2617  27.8768  28.1097  28.3461  28.5860
 CONDUCTIVITY     29.7257  30.1774  30.6359  31.1011  24.4372  24.7979  25.1646  25.5372
 PRANDTL NUMBER    0.5131   0.5117   0.5103   0.5089   0.5354   0.5336   0.5319   0.5302

  WITH FROZEN REACTIONS

 Cp, KJ/(KG)(K)   18.6100  18.6216  18.6332  18.6448  18.4789  18.4907  18.5025  18.5143
 CONDUCTIVITY     12.9198  12.9698  13.0201  13.0706  12.3684  12.4155  12.4628  12.5103
 PRANDTL NUMBER    0.7001   0.7000   0.6999   0.6998   0.7012   0.7011   0.7011   0.7010

 MASS FRACTIONS

 *H               0.02019  0.02076  0.02133  0.02192  0.01386  0.01428  0.01471  0.01514
 *H2              0.97981  0.97924  0.97867  0.97808  0.98614  0.98572  0.98529  0.98486

  * THERMODYNAMIC PROPERTIES FITTED TO 20000.K

 NOTE. WEIGHT FRACTION OF FUEL IN TOTAL FUELS AND OF OXIDANT IN TOTAL OXIDANTS









               THERMODYNAMIC EQUILIBRIUM PROPERTIES AT ASSIGNED

                           TEMPERATURE AND PRESSURE

 CASE =                

             REACTANT                    WT FRACTION      ENERGY      TEMP
                                          (SEE NOTE)     KJ/KG-MOL      K  
 FUEL        H2                           1.0000000         0.000      0.000
 OXIDANT     H2                           1.0000000         0.000      0.000

 O/F=    1.00000  %FUEL= 50.000000  R,EQ.RATIO= 0.000000  PHI,EQ.RATIO=-1.000000

 THERMODYNAMIC PROPERTIES

 P, BAR            44.000   44.000   44.000   44.000   44.000   44.000   44.000   44.000
 T, K             3090.00  3100.00  3110.00  3120.00  3130.00  3140.00  3150.00  3160.00
 RHO, KG/CU M    3.3994-1 3.3869-1 3.3745-1 3.3621-1 3.3497-1 3.3374-1 3.3252-1 3.3130-1
 H, KJ/KG         49233.1  49522.6  49814.7  50109.2  50406.3  50706.0  51008.3  51313.3
 U, KJ/KG         36289.7  36531.5  36775.6  37022.1  37270.9  37522.2  37775.9  38032.1
 G, KJ/KG       -219170.2-220039.3-220909.3-221780.3-222652.2-223525.0-224398.9-225273.7
 S, KJ/(KG)(K)    86.8619  86.9555  87.0495  87.1441  87.2391  87.3347  87.4309  87.5275

 M, (1/n)           1.985    1.984    1.983    1.982    1.981    1.980    1.979    1.978
 (dLV/dLP)t      -1.00767 -1.00789 -1.00812 -1.00835 -1.00859 -1.00883 -1.00907 -1.00932
 (dLV/dLT)p        1.1374   1.1409   1.1445   1.1481   1.1518   1.1556   1.1594   1.1633
 Cp, KJ/(KG)(K)   28.8294  29.0765  29.3271  29.5813  29.8391  30.1006  30.3657  30.6345
 GAMMAs            1.2199   1.2191   1.2182   1.2174   1.2166   1.2157   1.2149   1.2141
 SON VEL,M/SEC     3973.7   3979.6   3985.5   3991.5   3997.5   4003.5   4009.5   4015.6

 TRANSPORT PROPERTIES (GASES ONLY)
   CONDUCTIVITY IN UNITS OF MILLIWATTS/(CM)(K)

 VISC,MILLIPOISE  0.47510  0.47656  0.47802  0.47948  0.48095  0.48243  0.48392  0.48541

  WITH EQUILIBRIUM REACTIONS

 Cp, KJ/(KG)(K)   28.8294  29.0765  29.3271  29.5813  29.8391  30.1006  30.3657  30.6345
 CONDUCTIVITY     25.9159  26.3007  26.6916  27.0888  27.4921  27.9017  28.3176  28.7399
 PRANDTL NUMBER    0.5285   0.5269   0.5252   0.5236   0.5220   0.5205   0.5189   0.5174

  WITH FROZEN REACTIONS

 Cp, KJ/(KG)(K)   18.5260  18.5377  18.5494  18.5611  18.5727  18.5843  18.5960  18.6075
 CONDUCTIVITY     12.5581  12.6060  12.6542  12.7025  12.7511  12.7999  12.8490  12.8982
 PRANDTL NUMBER    0.7009   0.7008   0.7007   0.7006   0.7005   0.7004   0.7004   0.7003

 MASS FRACTIONS

 *H               0.01559  0.01605  0.01651  0.01699  0.01748  0.01798  0.01849  0.01901
 *H2              0.98441  0.98395  0.98349  0.98301  0.98252  0.98202  0.98151  0.98099

  * THERMODYNAMIC PROPERTIES FITTED TO 20000.K

 NOTE. WEIGHT FRACTION OF FUEL IN TOTAL FUELS AND OF OXIDANT IN TOTAL OXIDANTS









               THERMODYNAMIC EQUILIBRIUM PROPERTIES AT ASSIGNED

                           TEMPERATURE AND PRESSURE

 CASE =                

             REACTANT                    WT FRACTION      ENERGY      TEMP
                                          (SEE NOTE)     KJ/KG-MOL      K  
 FUEL        H2                           1.0000000         0.000      0.000
 OXIDANT     H2                           1.0000000         0.000      0.000

 O/F=    1.00000  %FUEL= 50.000000  R,EQ.RATIO= 0.000000  PHI,EQ.RATIO=-1.000000

 THERMODYNAMIC PROPERTIES

 P, BAR            44.000   44.000   44.000   49.000   49.000   49.000   49.000   49.000
 T, K             3170.00  3180.00  3190.00  3050.00  3060.00  3070.00  3080.00  3090.00
 RHO, KG/CU M    3.3008-1 3.2886-1 3.2766-1 3.8446-1 3.8306-1 3.8166-1 3.8026-1 3.7888-1
 H, KJ/KG         51621.0  51931.5  52244.7  47933.5  48208.5  48485.6  48765.0  49046.8
 U, KJ/KG         38290.8  38552.1  38815.9  35188.5  35416.7  35646.9  35879.3  36113.8
 G, KJ/KG       -226149.4-227026.2-227903.9-214330.9-215191.2-216052.4-216914.6-217777.6
 S, KJ/(KG)(K)    87.6247  87.7225  87.8209  85.9883  86.0783  86.1688  86.2596  86.3509

 M, (1/n)           1.977    1.976    1.975    1.990    1.989    1.988    1.987    1.987
 (dLV/dLP)t      -1.00958 -1.00984 -1.01011 -1.00648 -1.00667 -1.00687 -1.00707 -1.00728
 (dLV/dLT)p        1.1673   1.1714   1.1755   1.1175   1.1206   1.1238   1.1270   1.1303
 Cp, KJ/(KG)(K)   30.9070  31.1832  31.4631  27.3831  27.6044  27.8290  28.0569  28.2882
 GAMMAs            1.2133   1.2125   1.2118   1.2256   1.2247   1.2239   1.2230   1.2221
 SON VEL,M/SEC     4021.7   4027.8   4033.9   3952.3   3958.1   3963.9   3969.8   3975.6

 TRANSPORT PROPERTIES (GASES ONLY)
   CONDUCTIVITY IN UNITS OF MILLIWATTS/(CM)(K)

 VISC,MILLIPOISE  0.48690  0.48841  0.48991  0.46898  0.47040  0.47182  0.47325  0.47469

  WITH EQUILIBRIUM REACTIONS

 Cp, KJ/(KG)(K)   30.9070  31.1832  31.4631  27.3831  27.6044  27.8290  28.0569  28.2882
 CONDUCTIVITY     29.1686  29.6037  30.0452  23.7999  24.1442  24.4943  24.8500  25.2115
 PRANDTL NUMBER    0.5159   0.5145   0.5130   0.5396   0.5378   0.5361   0.5343   0.5326

  WITH FROZEN REACTIONS

 Cp, KJ/(KG)(K)   18.6191  18.6307  18.6422  18.4774  18.4891  18.5009  18.5126  18.5243
 CONDUCTIVITY     12.9477  12.9974  13.0473  12.3548  12.4015  12.4484  12.4956  12.5429
 PRANDTL NUMBER    0.7002   0.7001   0.7000   0.7014   0.7013   0.7012   0.7011   0.7011

 MASS FRACTIONS

 *H               0.01954  0.02009  0.02064  0.01314  0.01353  0.01394  0.01435  0.01477
 *H2              0.98046  0.97991  0.97936  0.98686  0.98647  0.98606  0.98565  0.98523

  * THERMODYNAMIC PROPERTIES FITTED TO 20000.K

 NOTE. WEIGHT FRACTION OF FUEL IN TOTAL FUELS AND OF OXIDANT IN TOTAL OXIDANTS









               THERMODYNAMIC EQUILIBRIUM PROPERTIES AT ASSIGNED

                           TEMPERATURE AND PRESSURE

 CASE =                

             REACTANT                    WT FRACTION      ENERGY      TEMP
                                          (SEE NOTE)     KJ/KG-MOL      K  
 FUEL        H2                           1.0000000         0.000      0.000
 OXIDANT     H2                           1.0000000         0.000      0.000

 O/F=    1.00000  %FUEL= 50.000000  R,EQ.RATIO= 0.000000  PHI,EQ.RATIO=-1.000000

 THERMODYNAMIC PROPERTIES

 P, BAR            49.000   49.000   49.000   49.000   49.000   49.000   49.000   49.000
 T, K             3100.00  3110.00  3120.00  3130.00  3140.00  3150.00  3160.00  3170.00
 RHO, KG/CU M    3.7749-1 3.7611-1 3.7474-1 3.7337-1 3.7201-1 3.7066-1 3.6930-1 3.6796-1
 H, KJ/KG         49330.8  49617.2  49906.1  50197.3  50491.0  50787.2  51086.0  51387.3
 U, KJ/KG         36350.4  36589.3  36830.4  37073.8  37319.4  37567.4  37817.8  38070.5
 G, KJ/KG       -218641.6-219506.5-220372.3-221239.0-222106.7-222975.3-223844.9-224715.4
 S, KJ/(KG)(K)    86.4427  86.5350  86.6277  86.7209  86.8146  86.9088  87.0034  87.0986

 M, (1/n)           1.986    1.985    1.984    1.983    1.982    1.981    1.980    1.979
 (dLV/dLP)t      -1.00749 -1.00770 -1.00792 -1.00814 -1.00837 -1.00861 -1.00884 -1.00909
 (dLV/dLT)p        1.1336   1.1370   1.1405   1.1440   1.1476   1.1512   1.1549   1.1587
 Cp, KJ/(KG)(K)   28.5229  28.7610  29.0025  29.2474  29.4958  29.7476  30.0030  30.2618
 GAMMAs            1.2213   1.2204   1.2196   1.2187   1.2179   1.2171   1.2163   1.2155
 SON VEL,M/SEC     3981.5   3987.4   3993.3   3999.3   4005.2   4011.2   4017.2   4023.3

 TRANSPORT PROPERTIES (GASES ONLY)
   CONDUCTIVITY IN UNITS OF MILLIWATTS/(CM)(K)

 VISC,MILLIPOISE  0.47613  0.47758  0.47903  0.48049  0.48195  0.48342  0.48490  0.48638

  WITH EQUILIBRIUM REACTIONS

 Cp, KJ/(KG)(K)   28.5229  28.7610  29.0025  29.2474  29.4958  29.7476  30.0030  30.2618
 CONDUCTIVITY     25.5788  25.9520  26.3311  26.7161  27.1070  27.5040  27.9071  28.3162
 PRANDTL NUMBER    0.5309   0.5293   0.5276   0.5260   0.5244   0.5229   0.5213   0.5198

  WITH FROZEN REACTIONS

 Cp, KJ/(KG)(K)   18.5359  18.5476  18.5592  18.5708  18.5824  18.5940  18.6055  18.6170
 CONDUCTIVITY     12.5904  12.6381  12.6860  12.7342  12.7825  12.8311  12.8798  12.9288
 PRANDTL NUMBER    0.7010   0.7009   0.7008   0.7007   0.7006   0.7005   0.7005   0.7004

 MASS FRACTIONS

 *H               0.01521  0.01565  0.01610  0.01656  0.01704  0.01752  0.01801  0.01852
 *H2              0.98479  0.98435  0.98390  0.98344  0.98296  0.98248  0.98199  0.98148

  * THERMODYNAMIC PROPERTIES FITTED TO 20000.K

 NOTE. WEIGHT FRACTION OF FUEL IN TOTAL FUELS AND OF OXIDANT IN TOTAL OXIDANTS









               THERMODYNAMIC EQUILIBRIUM PROPERTIES AT ASSIGNED

                           TEMPERATURE AND PRESSURE

 CASE =                

             REACTANT                    WT FRACTION      ENERGY      TEMP
                                          (SEE NOTE)     KJ/KG-MOL      K  
 FUEL        H2                           1.0000000         0.000      0.000
 OXIDANT     H2                           1.0000000         0.000      0.000

 O/F=    1.00000  %FUEL= 50.000000  R,EQ.RATIO= 0.000000  PHI,EQ.RATIO=-1.000000

 THERMODYNAMIC PROPERTIES

 P, BAR            49.000   49.000   54.000   54.000   54.000   54.000   54.000   54.000
 T, K             3180.00  3190.00  3050.00  3060.00  3070.00  3080.00  3090.00  3100.00
 RHO, KG/CU M    3.6661-1 3.6528-1 4.2396-1 4.2241-1 4.2088-1 4.1935-1 4.1782-1 4.1631-1
 H, KJ/KG         51691.2  51997.8  47791.4  48062.1  48334.9  48609.8  48886.9  49166.3
 U, KJ/KG         38325.6  38583.3  35054.3  35278.4  35504.5  35732.7  35962.9  36195.1
 G, KJ/KG       -225586.9-226459.3-213092.9-213948.7-214805.4-215663.0-216521.5-217380.8
 S, KJ/(KG)(K)    87.1944  87.2906  85.5359  85.6244  85.7134  85.8029  85.8927  85.9829

 M, (1/n)           1.978    1.977    1.991    1.990    1.989    1.989    1.988    1.987
 (dLV/dLP)t      -1.00934 -1.00959 -1.00618 -1.00636 -1.00655 -1.00674 -1.00694 -1.00714
 (dLV/dLT)p        1.1626   1.1664   1.1120   1.1150   1.1180   1.1211   1.1242   1.1274
 Cp, KJ/(KG)(K)   30.5241  30.7900  26.9596  27.1710  27.3855  27.6031  27.8240  28.0481
 GAMMAs            1.2147   1.2139   1.2276   1.2267   1.2258   1.2249   1.2241   1.2232
 SON VEL,M/SEC     4029.3   4035.4   3954.2   3960.0   3965.8   3971.6   3977.4   3983.3

 TRANSPORT PROPERTIES (GASES ONLY)
   CONDUCTIVITY IN UNITS OF MILLIWATTS/(CM)(K)

 VISC,MILLIPOISE  0.48787  0.48936  0.46866  0.47007  0.47148  0.47290  0.47433  0.47576

  WITH EQUILIBRIUM REACTIONS

 Cp, KJ/(KG)(K)   30.5241  30.7900  26.9596  27.1710  27.3855  27.6031  27.8240  28.0481
 CONDUCTIVITY     28.7315  29.1530  23.2525  23.5827  23.9185  24.2597  24.6064  24.9586
 PRANDTL NUMBER    0.5183   0.5168   0.5434   0.5416   0.5398   0.5381   0.5364   0.5347

  WITH FROZEN REACTIONS

 Cp, KJ/(KG)(K)   18.6285  18.6400  18.4760  18.4877  18.4994  18.5111  18.5228  18.5344
 CONDUCTIVITY     12.9780  13.0274  12.3431  12.3895  12.4361  12.4828  12.5298  12.5769
 PRANDTL NUMBER    0.7003   0.7002   0.7015   0.7014   0.7014   0.7013   0.7012   0.7011

 MASS FRACTIONS

 *H               0.01903  0.01956  0.01251  0.01289  0.01328  0.01367  0.01407  0.01449
 *H2              0.98097  0.98044  0.98749  0.98711  0.98672  0.98633  0.98593  0.98551

  * THERMODYNAMIC PROPERTIES FITTED TO 20000.K

 NOTE. WEIGHT FRACTION OF FUEL IN TOTAL FUELS AND OF OXIDANT IN TOTAL OXIDANTS









               THERMODYNAMIC EQUILIBRIUM PROPERTIES AT ASSIGNED

                           TEMPERATURE AND PRESSURE

 CASE =                

             REACTANT                    WT FRACTION      ENERGY      TEMP
                                          (SEE NOTE)     KJ/KG-MOL      K  
 FUEL        H2                           1.0000000         0.000      0.000
 OXIDANT     H2                           1.0000000         0.000      0.000

 O/F=    1.00000  %FUEL= 50.000000  R,EQ.RATIO= 0.000000  PHI,EQ.RATIO=-1.000000

 THERMODYNAMIC PROPERTIES

 P, BAR            54.000   54.000   54.000   54.000   54.000   54.000   54.000   54.000
 T, K             3110.00  3120.00  3130.00  3140.00  3150.00  3160.00  3170.00  3180.00
 RHO, KG/CU M    4.1480-1 4.1329-1 4.1179-1 4.1030-1 4.0881-1 4.0733-1 4.0585-1 4.0438-1
 H, KJ/KG         49447.9  49731.8  50018.1  50306.6  50597.6  50891.0  51186.8  51485.2
 U, KJ/KG         36429.5  36666.0  36904.6  37145.5  37388.6  37633.9  37881.5  38131.4
 G, KJ/KG       -218241.1-219102.3-219964.4-220827.4-221691.4-222556.3-223422.1-224288.8
 S, KJ/(KG)(K)    86.0736  86.1648  86.2564  86.3484  86.4409  86.5339  86.6274  86.7214

 M, (1/n)           1.986    1.985    1.985    1.984    1.983    1.982    1.981    1.980
 (dLV/dLP)t      -1.00734 -1.00755 -1.00776 -1.00798 -1.00821 -1.00843 -1.00866 -1.00890
 (dLV/dLT)p        1.1306   1.1339   1.1373   1.1407   1.1442   1.1477   1.1513   1.1550
 Cp, KJ/(KG)(K)   28.2754  28.5060  28.7399  28.9770  29.2174  29.4612  29.7083  29.9588
 GAMMAs            1.2224   1.2215   1.2207   1.2199   1.2191   1.2182   1.2175   1.2167
 SON VEL,M/SEC     3989.1   3995.0   4000.9   4006.8   4012.8   4018.8   4024.8   4030.8

 TRANSPORT PROPERTIES (GASES ONLY)
   CONDUCTIVITY IN UNITS OF MILLIWATTS/(CM)(K)

 VISC,MILLIPOISE  0.47720  0.47864  0.48009  0.48154  0.48300  0.48446  0.48593  0.48741

  WITH EQUILIBRIUM REACTIONS

 Cp, KJ/(KG)(K)   28.2754  28.5060  28.7399  28.9770  29.2174  29.4612  29.7083  29.9588
 CONDUCTIVITY     25.3165  25.6800  26.0492  26.4241  26.8048  27.1913  27.5836  27.9818
 PRANDTL NUMBER    0.5330   0.5313   0.5297   0.5281   0.5265   0.5249   0.5234   0.5218

  WITH FROZEN REACTIONS

 Cp, KJ/(KG)(K)   18.5460  18.5576  18.5692  18.5807  18.5922  18.6038  18.6152  18.6267
 CONDUCTIVITY     12.6243  12.6718  12.7195  12.7675  12.8156  12.8640  12.9125  12.9613
 PRANDTL NUMBER    0.7010   0.7010   0.7009   0.7008   0.7007   0.7006   0.7005   0.7005

 MASS FRACTIONS

 *H               0.01491  0.01534  0.01578  0.01623  0.01669  0.01716  0.01764  0.01813
 *H2              0.98509  0.98466  0.98422  0.98377  0.98331  0.98284  0.98236  0.98187

  * THERMODYNAMIC PROPERTIES FITTED TO 20000.K

 NOTE. WEIGHT FRACTION OF FUEL IN TOTAL FUELS AND OF OXIDANT IN TOTAL OXIDANTS









               THERMODYNAMIC EQUILIBRIUM PROPERTIES AT ASSIGNED

                           TEMPERATURE AND PRESSURE

 CASE =                

             REACTANT                    WT FRACTION      ENERGY      TEMP
                                          (SEE NOTE)     KJ/KG-MOL      K  
 FUEL        H2                           1.0000000         0.000      0.000
 OXIDANT     H2                           1.0000000         0.000      0.000

 O/F=    1.00000  %FUEL= 50.000000  R,EQ.RATIO= 0.000000  PHI,EQ.RATIO=-1.000000

 THERMODYNAMIC PROPERTIES

 P, BAR            54.000
 T, K             3190.00
 RHO, KG/CU M    4.0291-1
 H, KJ/KG         51786.0
 U, KJ/KG         38383.7
 G, KJ/KG       -225156.5
 S, KJ/(KG)(K)    86.8158

 M, (1/n)           1.979
 (dLV/dLP)t      -1.00914
 (dLV/dLT)p        1.1587
 Cp, KJ/(KG)(K)   30.2126
 GAMMAs            1.2159
 SON VEL,M/SEC     4036.8

 TRANSPORT PROPERTIES (GASES ONLY)
   CONDUCTIVITY IN UNITS OF MILLIWATTS/(CM)(K)

 VISC,MILLIPOISE  0.48889

  WITH EQUILIBRIUM REACTIONS

 Cp, KJ/(KG)(K)   30.2126
 CONDUCTIVITY     28.3859
 PRANDTL NUMBER    0.5203

  WITH FROZEN REACTIONS

 Cp, KJ/(KG)(K)   18.6382
 CONDUCTIVITY     13.0103
 PRANDTL NUMBER    0.7004

 MASS FRACTIONS

 *H               0.01863
 *H2              0.98137

  * THERMODYNAMIC PROPERTIES FITTED TO 20000.K

 NOTE. WEIGHT FRACTION OF FUEL IN TOTAL FUELS AND OF OXIDANT IN TOTAL OXIDANTS



  
