
 *******************************************************************************

         NASA-GLENN CHEMICAL EQUILIBRIUM PROGRAM CEA2, MAY 21, 2004
                   BY  BONNIE MCBRIDE AND SANFORD GORDON
      REFS: NASA RP-1311, PART I, 1994 AND NASA RP-1311, PART II, 1996

 *******************************************************************************



  prob tp ions
  p,bar= 280.0,310.0,350.0,390.0,440.0,490.0,540.0,600.0,670.0,740.0,825.0,910.0
  t,k= 7400,7410,7420,7430,7440,7450,7460,7470,7480,7490,7500,7510,7520,7530,7540
  
  
  reac
  fuel H2                wt%=100.0000
  oxid H2                wt%=100.0000
  
  output short
  
  output massf
  
  output siunits
  
  output transport
  
 end





               THERMODYNAMIC EQUILIBRIUM PROPERTIES AT ASSIGNED

                           TEMPERATURE AND PRESSURE

 CASE =                

             REACTANT                    WT FRACTION      ENERGY      TEMP
                                          (SEE NOTE)     KJ/KG-MOL      K  
 FUEL        H2                           1.0000000         0.000      0.000
 OXIDANT     H2                           1.0000000         0.000      0.000

 O/F=    1.00000  %FUEL= 50.000000  R,EQ.RATIO= 0.000000  PHI,EQ.RATIO=-1.000000

 THERMODYNAMIC PROPERTIES

 P, BAR            280.00   280.00   280.00   280.00   280.00   280.00   280.00   280.00
 T, K             7400.00  7410.00  7420.00  7430.00  7440.00  7450.00  7460.00  7470.00
 RHO, KG/CU M    5.2047-1 5.1929-1 5.1812-1 5.1695-1 5.1579-1 5.1464-1 5.1349-1 5.1236-1
 H, KJ/KG        308158.7 308739.9 309318.7 309895.0 310469.0 311040.5 311609.7 312176.5
 U, KJ/KG        254361.2 254820.1 255276.8 255731.3 256183.5 256633.5 257081.3 257527.0
 G, KJ/KG       -634480.3-635754.5-637029.5-638305.3-639581.9-640859.2-642137.3-643416.2
 S, KJ/(KG)(K)   127.3836 127.4621 127.5402 127.6178 127.6950 127.7718 127.8481 127.9241

 M, (1/n)           1.144    1.143    1.142    1.141    1.140    1.139    1.138    1.137
 (dLV/dLP)t      -1.09057 -1.09015 -1.08972 -1.08929 -1.08887 -1.08844 -1.08802 -1.08759
 (dLV/dLT)p        1.6834   1.6793   1.6752   1.6711   1.6670   1.6629   1.6588   1.6548
 Cp, KJ/(KG)(K)   58.2415  57.9989  57.7571  57.5160  57.2757  57.0362  56.7976  56.5597
 GAMMAs            1.3572   1.3581   1.3590   1.3599   1.3608   1.3617   1.3626   1.3635
 SON VEL,M/SEC     8544.7   8557.2   8569.8   8582.3   8594.8   8607.3   8619.8   8632.2

 TRANSPORT PROPERTIES (GASES ONLY)
   CONDUCTIVITY IN UNITS OF MILLIWATTS/(CM)(K)

 VISC,MILLIPOISE  0.94162  0.94177  0.94193  0.94208  0.94224  0.94240  0.94256  0.94272

  WITH EQUILIBRIUM REACTIONS

 Cp, KJ/(KG)(K)   58.2415  57.9989  57.7571  57.5160  57.2757  57.0362  56.7976  56.5597
 CONDUCTIVITY     87.6288  87.2663  86.9052  86.5454  86.1870  85.8300  85.4745  85.1203
 PRANDTL NUMBER    0.6258   0.6259   0.6260   0.6261   0.6262   0.6262   0.6263   0.6264

  WITH FROZEN REACTIONS

 Cp, KJ/(KG)(K)   20.6881  20.6871  20.6861  20.6851  20.6842  20.6832  20.6822  20.6812
 CONDUCTIVITY     27.2102  27.2210  27.2319  27.2429  27.2539  27.2651  27.2763  27.2877
 PRANDTL NUMBER    0.7159   0.7157   0.7155   0.7153   0.7151   0.7149   0.7147   0.7145

 MASS FRACTIONS

 *H               0.76248  0.76410  0.76570  0.76730  0.76889  0.77047  0.77204  0.77360
 *H+              0.00005  0.00005  0.00005  0.00005  0.00005  0.00005  0.00005  0.00005
 *H-              0.00001  0.00001  0.00001  0.00001  0.00001  0.00001  0.00001  0.00001
 *H2              0.23746  0.23584  0.23423  0.23263  0.23104  0.22946  0.22789  0.22633
 *H2+             0.00001  0.00001  0.00001  0.00001  0.00001  0.00001  0.00001  0.00001

  * THERMODYNAMIC PROPERTIES FITTED TO 20000.K

 NOTE. WEIGHT FRACTION OF FUEL IN TOTAL FUELS AND OF OXIDANT IN TOTAL OXIDANTS









               THERMODYNAMIC EQUILIBRIUM PROPERTIES AT ASSIGNED

                           TEMPERATURE AND PRESSURE

 CASE =                

             REACTANT                    WT FRACTION      ENERGY      TEMP
                                          (SEE NOTE)     KJ/KG-MOL      K  
 FUEL        H2                           1.0000000         0.000      0.000
 OXIDANT     H2                           1.0000000         0.000      0.000

 O/F=    1.00000  %FUEL= 50.000000  R,EQ.RATIO= 0.000000  PHI,EQ.RATIO=-1.000000

 THERMODYNAMIC PROPERTIES

 P, BAR            280.00   280.00   280.00   280.00   280.00   280.00   280.00   310.00
 T, K             7480.00  7490.00  7500.00  7510.00  7520.00  7530.00  7540.00  7400.00
 RHO, KG/CU M    5.1122-1 5.1010-1 5.0898-1 5.0787-1 5.0676-1 5.0567-1 5.0457-1 5.8170-1
 H, KJ/KG        312740.9 313303.0 313862.6 314420.0 314975.0 315527.7 316078.0 304347.3
 U, KJ/KG        257970.4 258411.7 258850.8 259287.7 259722.5 260155.2 260585.7 251055.0
 G, KJ/KG       -644695.8-645976.1-647257.3-648539.1-649821.7-651105.1-652389.2-629030.2
 S, KJ/(KG)(K)   127.9996 128.0746 128.1493 128.2236 128.2974 128.3709 128.4439 126.1321

 M, (1/n)           1.136    1.135    1.134    1.133    1.132    1.131    1.130    1.155
 (dLV/dLP)t      -1.08717 -1.08675 -1.08632 -1.08590 -1.08548 -1.08506 -1.08464 -1.09478
 (dLV/dLT)p        1.6507   1.6467   1.6427   1.6387   1.6347   1.6308   1.6268   1.7151
 Cp, KJ/(KG)(K)   56.3227  56.0866  55.8513  55.6169  55.3835  55.1509  54.9193  59.6096
 GAMMAs            1.3644   1.3653   1.3663   1.3672   1.3681   1.3690   1.3699   1.3525
 SON VEL,M/SEC     8644.7   8657.1   8669.5   8681.9   8694.3   8706.6   8719.0   8489.7

 TRANSPORT PROPERTIES (GASES ONLY)
   CONDUCTIVITY IN UNITS OF MILLIWATTS/(CM)(K)

 VISC,MILLIPOISE  0.94289  0.94306  0.94323  0.94341  0.94359  0.94377  0.94395  0.95206

  WITH EQUILIBRIUM REACTIONS

 Cp, KJ/(KG)(K)   56.3227  56.0866  55.8513  55.6169  55.3835  55.1509  54.9193  59.6096
 CONDUCTIVITY     84.7677  84.4165  84.0669  83.7188  83.3722  83.0271  82.6837  90.6634
 PRANDTL NUMBER    0.6265   0.6266   0.6267   0.6267   0.6268   0.6269   0.6270   0.6260

  WITH FROZEN REACTIONS

 Cp, KJ/(KG)(K)   20.6802  20.6792  20.6782  20.6773  20.6763  20.6753  20.6743  20.6919
 CONDUCTIVITY     27.2992  27.3107  27.3224  27.3341  27.3459  27.3579  27.3699  27.4415
 PRANDTL NUMBER    0.7143   0.7141   0.7139   0.7137   0.7134   0.7132   0.7130   0.7179

 MASS FRACTIONS

 *H               0.77514  0.77668  0.77820  0.77972  0.78123  0.78272  0.78421  0.74593
 *H+              0.00005  0.00005  0.00005  0.00005  0.00006  0.00006  0.00006  0.00004
 *H-              0.00001  0.00001  0.00001  0.00001  0.00001  0.00001  0.00001  0.00001
 *H2              0.22478  0.22325  0.22172  0.22020  0.21870  0.21720  0.21571  0.25400
 *H2+             0.00001  0.00002  0.00002  0.00002  0.00002  0.00002  0.00002  0.00001

  * THERMODYNAMIC PROPERTIES FITTED TO 20000.K

 NOTE. WEIGHT FRACTION OF FUEL IN TOTAL FUELS AND OF OXIDANT IN TOTAL OXIDANTS









               THERMODYNAMIC EQUILIBRIUM PROPERTIES AT ASSIGNED

                           TEMPERATURE AND PRESSURE

 CASE =                

             REACTANT                    WT FRACTION      ENERGY      TEMP
                                          (SEE NOTE)     KJ/KG-MOL      K  
 FUEL        H2                           1.0000000         0.000      0.000
 OXIDANT     H2                           1.0000000         0.000      0.000

 O/F=    1.00000  %FUEL= 50.000000  R,EQ.RATIO= 0.000000  PHI,EQ.RATIO=-1.000000

 THERMODYNAMIC PROPERTIES

 P, BAR            310.00   310.00   310.00   310.00   310.00   310.00   310.00   310.00
 T, K             7410.00  7420.00  7430.00  7440.00  7450.00  7460.00  7470.00  7480.00
 RHO, KG/CU M    5.8035-1 5.7902-1 5.7769-1 5.7637-1 5.7506-1 5.7375-1 5.7246-1 5.7117-1
 H, KJ/KG        304942.2 305534.8 306125.0 306712.8 307298.3 307881.4 308462.2 309040.7
 U, KJ/KG        251526.5 251995.8 252462.9 252927.8 253390.6 253851.1 254309.6 254765.8
 G, KJ/KG       -630291.9-631554.4-632817.7-634081.8-635346.8-636612.4-637878.9-639146.1
 S, KJ/(KG)(K)   126.2124 126.2923 126.3718 126.4509 126.5295 126.6078 126.6856 126.7629

 M, (1/n)           1.153    1.152    1.151    1.150    1.149    1.148    1.147    1.146
 (dLV/dLP)t      -1.09436 -1.09395 -1.09353 -1.09312 -1.09270 -1.09229 -1.09187 -1.09146
 (dLV/dLT)p        1.7110   1.7069   1.7029   1.6988   1.6948   1.6907   1.6867   1.6827
 Cp, KJ/(KG)(K)   59.3726  59.1362  58.9003  58.6649  58.4302  58.1960  57.9624  57.7295
 GAMMAs            1.3533   1.3542   1.3551   1.3560   1.3568   1.3577   1.3586   1.3595
 SON VEL,M/SEC     8502.3   8514.9   8527.4   8539.9   8552.5   8564.9   8577.4   8589.9

 TRANSPORT PROPERTIES (GASES ONLY)
   CONDUCTIVITY IN UNITS OF MILLIWATTS/(CM)(K)

 VISC,MILLIPOISE  0.95221  0.95236  0.95251  0.95266  0.95281  0.95297  0.95313  0.95329

  WITH EQUILIBRIUM REACTIONS

 Cp, KJ/(KG)(K)   59.3726  59.1362  58.9003  58.6649  58.4302  58.1960  57.9624  57.7295
 CONDUCTIVITY     90.3042  89.9461  89.5890  89.2330  88.8781  88.5243  88.1718  87.8203
 PRANDTL NUMBER    0.6261   0.6261   0.6262   0.6263   0.6264   0.6265   0.6266   0.6267

  WITH FROZEN REACTIONS

 Cp, KJ/(KG)(K)   20.6908  20.6898  20.6887  20.6877  20.6866  20.6855  20.6845  20.6834
 CONDUCTIVITY     27.4517  27.4621  27.4725  27.4830  27.4936  27.5043  27.5151  27.5259
 PRANDTL NUMBER    0.7177   0.7175   0.7173   0.7171   0.7169   0.7167   0.7165   0.7163

 MASS FRACTIONS

 *H               0.74761  0.74928  0.75094  0.75259  0.75423  0.75586  0.75748  0.75908
 *H+              0.00004  0.00004  0.00004  0.00005  0.00005  0.00005  0.00005  0.00005
 *H-              0.00001  0.00001  0.00001  0.00001  0.00001  0.00001  0.00001  0.00001
 *H2              0.25232  0.25065  0.24899  0.24734  0.24570  0.24407  0.24245  0.24084
 *H2+             0.00001  0.00001  0.00001  0.00001  0.00001  0.00001  0.00002  0.00002

  * THERMODYNAMIC PROPERTIES FITTED TO 20000.K

 NOTE. WEIGHT FRACTION OF FUEL IN TOTAL FUELS AND OF OXIDANT IN TOTAL OXIDANTS









               THERMODYNAMIC EQUILIBRIUM PROPERTIES AT ASSIGNED

                           TEMPERATURE AND PRESSURE

 CASE =                

             REACTANT                    WT FRACTION      ENERGY      TEMP
                                          (SEE NOTE)     KJ/KG-MOL      K  
 FUEL        H2                           1.0000000         0.000      0.000
 OXIDANT     H2                           1.0000000         0.000      0.000

 O/F=    1.00000  %FUEL= 50.000000  R,EQ.RATIO= 0.000000  PHI,EQ.RATIO=-1.000000

 THERMODYNAMIC PROPERTIES

 P, BAR            310.00   310.00   310.00   310.00   310.00   310.00   350.00   350.00
 T, K             7490.00  7500.00  7510.00  7520.00  7530.00  7540.00  7400.00  7410.00
 RHO, KG/CU M    5.6989-1 5.6861-1 5.6735-1 5.6609-1 5.6484-1 5.6359-1 6.6455-1 6.6298-1
 H, KJ/KG        309616.8 310190.6 310762.1 311331.3 311898.2 312462.8 299631.7 300241.6
 U, KJ/KG        255220.0 255672.0 256121.8 256569.5 257015.1 257458.6 246964.4 247449.7
 G, KJ/KG       -640414.2-641682.9-642952.5-644222.8-645493.9-646765.7-622600.2-623846.9
 S, KJ/(KG)(K)   126.8399 126.9165 126.9926 127.0684 127.1437 127.2186 124.6259 124.7083

 M, (1/n)           1.145    1.144    1.143    1.142    1.141    1.140    1.168    1.167
 (dLV/dLP)t      -1.09104 -1.09063 -1.09021 -1.08980 -1.08939 -1.08897 -1.09960 -1.09921
 (dLV/dLT)p        1.6787   1.6747   1.6707   1.6668   1.6628   1.6589   1.7515   1.7475
 Cp, KJ/(KG)(K)   57.4973  57.2657  57.0348  56.8046  56.5752  56.3465  61.1047  60.8768
 GAMMAs            1.3604   1.3613   1.3622   1.3630   1.3639   1.3648   1.3472   1.3480
 SON VEL,M/SEC     8602.3   8614.8   8627.2   8639.6   8652.0   8664.4   8423.3   8435.8

 TRANSPORT PROPERTIES (GASES ONLY)
   CONDUCTIVITY IN UNITS OF MILLIWATTS/(CM)(K)

 VISC,MILLIPOISE  0.95345  0.95362  0.95378  0.95395  0.95412  0.95430  0.96466  0.96481

  WITH EQUILIBRIUM REACTIONS

 Cp, KJ/(KG)(K)   57.4973  57.2657  57.0348  56.8046  56.5752  56.3465  61.1047  60.8768
 CONDUCTIVITY     87.4702  87.1212  86.7735  86.4270  86.0819  85.7381  94.1640  93.8125
 PRANDTL NUMBER    0.6267   0.6268   0.6269   0.6270   0.6271   0.6272   0.6260   0.6261

  WITH FROZEN REACTIONS

 Cp, KJ/(KG)(K)   20.6824  20.6813  20.6802  20.6792  20.6781  20.6771  20.6966  20.6954
 CONDUCTIVITY     27.5369  27.5479  27.5591  27.5703  27.5816  27.5930  27.7258  27.7356
 PRANDTL NUMBER    0.7161   0.7159   0.7157   0.7155   0.7153   0.7151   0.7201   0.7199

 MASS FRACTIONS

 *H               0.76068  0.76227  0.76385  0.76542  0.76697  0.76852  0.72547  0.72721
 *H+              0.00005  0.00005  0.00005  0.00005  0.00005  0.00005  0.00004  0.00004
 *H-              0.00001  0.00001  0.00001  0.00001  0.00001  0.00001  0.00001  0.00001
 *H2              0.23925  0.23766  0.23608  0.23451  0.23295  0.23140  0.27448  0.27273
 *H2+             0.00002  0.00002  0.00002  0.00002  0.00002  0.00002  0.00001  0.00001

  * THERMODYNAMIC PROPERTIES FITTED TO 20000.K

 NOTE. WEIGHT FRACTION OF FUEL IN TOTAL FUELS AND OF OXIDANT IN TOTAL OXIDANTS









               THERMODYNAMIC EQUILIBRIUM PROPERTIES AT ASSIGNED

                           TEMPERATURE AND PRESSURE

 CASE =                

             REACTANT                    WT FRACTION      ENERGY      TEMP
                                          (SEE NOTE)     KJ/KG-MOL      K  
 FUEL        H2                           1.0000000         0.000      0.000
 OXIDANT     H2                           1.0000000         0.000      0.000

 O/F=    1.00000  %FUEL= 50.000000  R,EQ.RATIO= 0.000000  PHI,EQ.RATIO=-1.000000

 THERMODYNAMIC PROPERTIES

 P, BAR            350.00   350.00   350.00   350.00   350.00   350.00   350.00   350.00
 T, K             7420.00  7430.00  7440.00  7450.00  7460.00  7470.00  7480.00  7490.00
 RHO, KG/CU M    6.6142-1 6.5987-1 6.5833-1 6.5680-1 6.5528-1 6.5377-1 6.5226-1 6.5077-1
 H, KJ/KG        300849.2 301454.6 302057.6 302658.4 303257.0 303853.3 304447.3 305039.1
 U, KJ/KG        247932.9 248414.0 248893.0 249369.8 249844.6 250317.3 250787.9 251256.3
 G, KJ/KG       -625094.4-626342.7-627591.8-628841.8-630092.5-631344.1-632596.4-633849.5
 S, KJ/(KG)(K)   124.7902 124.8718 124.9529 125.0336 125.1139 125.1938 125.2732 125.3523

 M, (1/n)           1.166    1.165    1.164    1.162    1.161    1.160    1.159    1.158
 (dLV/dLP)t      -1.09881 -1.09842 -1.09802 -1.09762 -1.09722 -1.09682 -1.09643 -1.09603
 (dLV/dLT)p        1.7435   1.7395   1.7355   1.7316   1.7276   1.7237   1.7197   1.7158
 Cp, KJ/(KG)(K)   60.6491  60.4217  60.1946  59.9679  59.7414  59.5154  59.2897  59.0644
 GAMMAs            1.3488   1.3497   1.3505   1.3514   1.3522   1.3531   1.3539   1.3548
 SON VEL,M/SEC     8448.4   8461.0   8473.5   8486.1   8498.6   8511.1   8523.6   8536.0

 TRANSPORT PROPERTIES (GASES ONLY)
   CONDUCTIVITY IN UNITS OF MILLIWATTS/(CM)(K)

 VISC,MILLIPOISE  0.96496  0.96511  0.96527  0.96542  0.96558  0.96574  0.96590  0.96606

  WITH EQUILIBRIUM REACTIONS

 Cp, KJ/(KG)(K)   60.6491  60.4217  60.1946  59.9679  59.7414  59.5154  59.2897  59.0644
 CONDUCTIVITY     93.4617  93.1116  92.7622  92.4135  92.0656  91.7185  91.3722  91.0268
 PRANDTL NUMBER    0.6262   0.6263   0.6264   0.6265   0.6266   0.6267   0.6268   0.6268

  WITH FROZEN REACTIONS

 Cp, KJ/(KG)(K)   20.6943  20.6932  20.6920  20.6909  20.6897  20.6886  20.6874  20.6863
 CONDUCTIVITY     27.7454  27.7553  27.7652  27.7753  27.7854  27.7956  27.8059  27.8162
 PRANDTL NUMBER    0.7197   0.7195   0.7194   0.7192   0.7190   0.7188   0.7186   0.7184

 MASS FRACTIONS

 *H               0.72895  0.73067  0.73239  0.73409  0.73579  0.73747  0.73915  0.74082
 *H+              0.00004  0.00004  0.00004  0.00004  0.00004  0.00004  0.00004  0.00005
 *H-              0.00001  0.00001  0.00001  0.00001  0.00001  0.00001  0.00001  0.00001
 *H2              0.27099  0.26927  0.26755  0.26584  0.26415  0.26246  0.26078  0.25912
 *H2+             0.00001  0.00001  0.00001  0.00002  0.00002  0.00002  0.00002  0.00002

  * THERMODYNAMIC PROPERTIES FITTED TO 20000.K

 NOTE. WEIGHT FRACTION OF FUEL IN TOTAL FUELS AND OF OXIDANT IN TOTAL OXIDANTS









               THERMODYNAMIC EQUILIBRIUM PROPERTIES AT ASSIGNED

                           TEMPERATURE AND PRESSURE

 CASE =                

             REACTANT                    WT FRACTION      ENERGY      TEMP
                                          (SEE NOTE)     KJ/KG-MOL      K  
 FUEL        H2                           1.0000000         0.000      0.000
 OXIDANT     H2                           1.0000000         0.000      0.000

 O/F=    1.00000  %FUEL= 50.000000  R,EQ.RATIO= 0.000000  PHI,EQ.RATIO=-1.000000

 THERMODYNAMIC PROPERTIES

 P, BAR            350.00   350.00   350.00   350.00   350.00   390.00   390.00   390.00
 T, K             7500.00  7510.00  7520.00  7530.00  7540.00  7400.00  7410.00  7420.00
 RHO, KG/CU M    6.4928-1 6.4780-1 6.4633-1 6.4487-1 6.4342-1 7.4869-1 7.4689-1 7.4510-1
 H, KJ/KG        305628.6 306215.9 306800.9 307383.7 307964.3 295284.4 295906.3 296526.0
 U, KJ/KG        251722.7 252187.1 252649.3 253109.5 253567.6 243193.4 243689.8 244184.2
 G, KJ/KG       -635103.4-636358.1-637613.6-638869.9-640126.9-616932.0-618165.1-619399.1
 S, KJ/(KG)(K)   125.4309 125.5092 125.5870 125.6645 125.7415 123.2725 123.3565 123.4400

 M, (1/n)           1.157    1.156    1.155    1.154    1.152    1.181    1.180    1.179
 (dLV/dLP)t      -1.09563 -1.09523 -1.09482 -1.09442 -1.09402 -1.10368 -1.10331 -1.10293
 (dLV/dLT)p        1.7119   1.7079   1.7040   1.7001   1.6962   1.7822   1.7783   1.7744
 Cp, KJ/(KG)(K)   58.8396  58.6152  58.3912  58.1678  57.9448  62.2941  62.0762  61.8585
 GAMMAs            1.3556   1.3565   1.3574   1.3582   1.3591   1.3427   1.3435   1.3443
 SON VEL,M/SEC     8548.5   8560.9   8573.4   8585.8   8598.2   8363.2   8375.8   8388.3

 TRANSPORT PROPERTIES (GASES ONLY)
   CONDUCTIVITY IN UNITS OF MILLIWATTS/(CM)(K)

 VISC,MILLIPOISE  0.96622  0.96638  0.96655  0.96672  0.96689  0.97595  0.97611  0.97627

  WITH EQUILIBRIUM REACTIONS

 Cp, KJ/(KG)(K)   58.8396  58.6152  58.3912  58.1678  57.9448  62.2941  62.0762  61.8585
 CONDUCTIVITY     90.6823  90.3386  89.9959  89.6541  89.3134  97.1419  96.8008  96.4600
 PRANDTL NUMBER    0.6269   0.6270   0.6271   0.6272   0.6273   0.6258   0.6260   0.6261

  WITH FROZEN REACTIONS

 Cp, KJ/(KG)(K)   20.6851  20.6840  20.6828  20.6817  20.6805  20.7009  20.6997  20.6985
 CONDUCTIVITY     27.8267  27.8372  27.8478  27.8585  27.8693  27.9860  27.9954  28.0049
 PRANDTL NUMBER    0.7182   0.7181   0.7179   0.7177   0.7175   0.7219   0.7217   0.7216

 MASS FRACTIONS

 *H               0.74247  0.74412  0.74576  0.74738  0.74900  0.70659  0.70839  0.71018
 *H+              0.00005  0.00005  0.00005  0.00005  0.00005  0.00004  0.00004  0.00004
 *H-              0.00001  0.00001  0.00001  0.00001  0.00001  0.00001  0.00001  0.00001
 *H2              0.25746  0.25581  0.25417  0.25254  0.25093  0.29335  0.29155  0.28976
 *H2+             0.00002  0.00002  0.00002  0.00002  0.00002  0.00001  0.00001  0.00001

  * THERMODYNAMIC PROPERTIES FITTED TO 20000.K

 NOTE. WEIGHT FRACTION OF FUEL IN TOTAL FUELS AND OF OXIDANT IN TOTAL OXIDANTS









               THERMODYNAMIC EQUILIBRIUM PROPERTIES AT ASSIGNED

                           TEMPERATURE AND PRESSURE

 CASE =                

             REACTANT                    WT FRACTION      ENERGY      TEMP
                                          (SEE NOTE)     KJ/KG-MOL      K  
 FUEL        H2                           1.0000000         0.000      0.000
 OXIDANT     H2                           1.0000000         0.000      0.000

 O/F=    1.00000  %FUEL= 50.000000  R,EQ.RATIO= 0.000000  PHI,EQ.RATIO=-1.000000

 THERMODYNAMIC PROPERTIES

 P, BAR            390.00   390.00   390.00   390.00   390.00   390.00   390.00   390.00
 T, K             7430.00  7440.00  7450.00  7460.00  7470.00  7480.00  7490.00  7500.00
 RHO, KG/CU M    7.4333-1 7.4156-1 7.3981-1 7.3806-1 7.3632-1 7.3460-1 7.3288-1 7.3118-1
 H, KJ/KG        297143.5 297758.8 298371.9 298982.9 299591.7 300198.3 300802.8 301405.0
 U, KJ/KG        244676.6 245167.0 245655.3 246141.6 246625.9 247108.1 247588.4 248066.6
 G, KJ/KG       -620633.9-621869.5-623106.0-624343.3-625581.4-626820.3-628060.1-629300.6
 S, KJ/(KG)(K)   123.5232 123.6060 123.6883 123.7703 123.8518 123.9330 124.0137 124.0941

 M, (1/n)           1.177    1.176    1.175    1.174    1.173    1.171    1.170    1.169
 (dLV/dLP)t      -1.10256 -1.10218 -1.10180 -1.10143 -1.10105 -1.10067 -1.10028 -1.09990
 (dLV/dLT)p        1.7706   1.7667   1.7629   1.7590   1.7552   1.7513   1.7475   1.7436
 Cp, KJ/(KG)(K)   61.6407  61.4230  61.2054  60.9880  60.7706  60.5535  60.3365  60.1197
 GAMMAs            1.3451   1.3460   1.3468   1.3476   1.3484   1.3492   1.3501   1.3509
 SON VEL,M/SEC     8400.9   8413.5   8426.0   8438.5   8451.0   8463.5   8476.0   8488.5

 TRANSPORT PROPERTIES (GASES ONLY)
   CONDUCTIVITY IN UNITS OF MILLIWATTS/(CM)(K)

 VISC,MILLIPOISE  0.97643  0.97660  0.97676  0.97692  0.97709  0.97726  0.97742  0.97759

  WITH EQUILIBRIUM REACTIONS

 Cp, KJ/(KG)(K)   61.6407  61.4230  61.2054  60.9880  60.7706  60.5535  60.3365  60.1197
 CONDUCTIVITY     96.1195  95.7794  95.4397  95.1004  94.7616  94.4232  94.0854  93.7481
 PRANDTL NUMBER    0.6262   0.6263   0.6264   0.6265   0.6266   0.6267   0.6268   0.6269

  WITH FROZEN REACTIONS

 Cp, KJ/(KG)(K)   20.6973  20.6960  20.6948  20.6936  20.6924  20.6911  20.6899  20.6887
 CONDUCTIVITY     28.0144  28.0240  28.0337  28.0434  28.0533  28.0631  28.0731  28.0831
 PRANDTL NUMBER    0.7214   0.7212   0.7211   0.7209   0.7207   0.7205   0.7204   0.7202

 MASS FRACTIONS

 *H               0.71196  0.71373  0.71549  0.71724  0.71898  0.72071  0.72243  0.72414
 *H+              0.00004  0.00004  0.00004  0.00004  0.00004  0.00004  0.00004  0.00004
 *H-              0.00001  0.00001  0.00001  0.00001  0.00001  0.00001  0.00001  0.00001
 *H2              0.28798  0.28621  0.28445  0.28270  0.28096  0.27923  0.27751  0.27579
 *H2+             0.00001  0.00002  0.00002  0.00002  0.00002  0.00002  0.00002  0.00002

  * THERMODYNAMIC PROPERTIES FITTED TO 20000.K

 NOTE. WEIGHT FRACTION OF FUEL IN TOTAL FUELS AND OF OXIDANT IN TOTAL OXIDANTS









               THERMODYNAMIC EQUILIBRIUM PROPERTIES AT ASSIGNED

                           TEMPERATURE AND PRESSURE

 CASE =                

             REACTANT                    WT FRACTION      ENERGY      TEMP
                                          (SEE NOTE)     KJ/KG-MOL      K  
 FUEL        H2                           1.0000000         0.000      0.000
 OXIDANT     H2                           1.0000000         0.000      0.000

 O/F=    1.00000  %FUEL= 50.000000  R,EQ.RATIO= 0.000000  PHI,EQ.RATIO=-1.000000

 THERMODYNAMIC PROPERTIES

 P, BAR            390.00   390.00   390.00   390.00   440.00   440.00   440.00   440.00
 T, K             7510.00  7520.00  7530.00  7540.00  7400.00  7410.00  7420.00  7430.00
 RHO, KG/CU M    7.2948-1 7.2780-1 7.2612-1 7.2446-1 8.5553-1 8.5343-1 8.5136-1 8.4929-1
 H, KJ/KG        302005.1 302603.1 303198.9 303792.5 290299.7 290933.1 291564.5 292193.8
 U, KJ/KG        248542.7 249016.9 249489.1 249959.2 238869.4 239376.8 239882.2 240385.7
 G, KJ/KG       -630542.0-631784.1-633027.0-634270.8-610688.0-611906.0-613124.8-614344.5
 S, KJ/(KG)(K)   124.1740 124.2536 124.3328 124.4116 121.7551 121.8406 121.9258 122.0105

 M, (1/n)           1.168    1.167    1.166    1.165    1.196    1.195    1.194    1.192
 (dLV/dLP)t      -1.09952 -1.09914 -1.09875 -1.09837 -1.10792 -1.10757 -1.10723 -1.10688
 (dLV/dLT)p        1.7398   1.7360   1.7322   1.7283   1.8141   1.8104   1.8067   1.8030
 Cp, KJ/(KG)(K)   59.9031  59.6868  59.4707  59.2549  63.4408  63.2363  63.0316  62.8266
 GAMMAs            1.3517   1.3525   1.3534   1.3542   1.3380   1.3388   1.3396   1.3403
 SON VEL,M/SEC     8501.0   8513.4   8525.8   8538.2   8295.4   8308.0   8320.5   8333.1

 TRANSPORT PROPERTIES (GASES ONLY)
   CONDUCTIVITY IN UNITS OF MILLIWATTS/(CM)(K)

 VISC,MILLIPOISE  0.97776  0.97793  0.97810  0.97827  0.98850  0.98869  0.98887  0.98905

  WITH EQUILIBRIUM REACTIONS

 Cp, KJ/(KG)(K)   59.9031  59.6868  59.4707  59.2549  63.4408  63.2363  63.0316  62.8266
 CONDUCTIVITY     93.4115  93.0754  92.7400  92.4052 100.2617  99.9358  99.6099  99.2838
 PRANDTL NUMBER    0.6270   0.6271   0.6272   0.6273   0.6255   0.6256   0.6257   0.6259

  WITH FROZEN REACTIONS

 Cp, KJ/(KG)(K)   20.6874  20.6862  20.6850  20.6838  20.7059  20.7046  20.7033  20.7020
 CONDUCTIVITY     28.0932  28.1033  28.1135  28.1238  28.2816  28.2908  28.3001  28.3094
 PRANDTL NUMBER    0.7200   0.7198   0.7197   0.7195   0.7237   0.7236   0.7234   0.7233

 MASS FRACTIONS

 *H               0.72584  0.72754  0.72922  0.73089  0.68495  0.68680  0.68864  0.69047
 *H+              0.00004  0.00004  0.00005  0.00005  0.00003  0.00003  0.00003  0.00004
 *H-              0.00001  0.00001  0.00001  0.00001  0.00001  0.00001  0.00001  0.00001
 *H2              0.27409  0.27240  0.27071  0.26903  0.31499  0.31314  0.31130  0.30947
 *H2+             0.00002  0.00002  0.00002  0.00002  0.00001  0.00001  0.00002  0.00002

  * THERMODYNAMIC PROPERTIES FITTED TO 20000.K

 NOTE. WEIGHT FRACTION OF FUEL IN TOTAL FUELS AND OF OXIDANT IN TOTAL OXIDANTS









               THERMODYNAMIC EQUILIBRIUM PROPERTIES AT ASSIGNED

                           TEMPERATURE AND PRESSURE

 CASE =                

             REACTANT                    WT FRACTION      ENERGY      TEMP
                                          (SEE NOTE)     KJ/KG-MOL      K  
 FUEL        H2                           1.0000000         0.000      0.000
 OXIDANT     H2                           1.0000000         0.000      0.000

 O/F=    1.00000  %FUEL= 50.000000  R,EQ.RATIO= 0.000000  PHI,EQ.RATIO=-1.000000

 THERMODYNAMIC PROPERTIES

 P, BAR            440.00   440.00   440.00   440.00   440.00   440.00   440.00   440.00
 T, K             7440.00  7450.00  7460.00  7470.00  7480.00  7490.00  7500.00  7510.00
 RHO, KG/CU M    8.4723-1 8.4519-1 8.4316-1 8.4114-1 8.3913-1 8.3714-1 8.3515-1 8.3318-1
 H, KJ/KG        292821.0 293446.2 294069.3 294690.4 295309.4 295926.4 296541.3 297154.2
 U, KJ/KG        240887.3 241386.9 241884.7 242380.5 242874.3 243366.3 243856.3 244344.3
 G, KJ/KG       -615565.0-616786.4-618008.6-619231.6-620455.5-621680.2-622905.7-624132.0
 S, KJ/(KG)(K)   122.0949 122.1789 122.2625 122.3457 122.4285 122.5109 122.5929 122.6746

 M, (1/n)           1.191    1.190    1.189    1.187    1.186    1.185    1.184    1.182
 (dLV/dLP)t      -1.10653 -1.10618 -1.10583 -1.10548 -1.10512 -1.10477 -1.10441 -1.10405
 (dLV/dLT)p        1.7993   1.7956   1.7920   1.7883   1.7846   1.7809   1.7772   1.7735
 Cp, KJ/(KG)(K)   62.6215  62.4162  62.2108  62.0053  61.7997  61.5940  61.3884  61.1826
 GAMMAs            1.3411   1.3419   1.3427   1.3435   1.3443   1.3451   1.3459   1.3467
 SON VEL,M/SEC     8345.7   8358.2   8370.7   8383.2   8395.7   8408.2   8420.7   8433.2

 TRANSPORT PROPERTIES (GASES ONLY)
   CONDUCTIVITY IN UNITS OF MILLIWATTS/(CM)(K)

 VISC,MILLIPOISE  0.98923  0.98941  0.98959  0.98977  0.98995  0.99014  0.99032  0.99050

  WITH EQUILIBRIUM REACTIONS

 Cp, KJ/(KG)(K)   62.6215  62.4162  62.2108  62.0053  61.7997  61.5940  61.3884  61.1826
 CONDUCTIVITY     98.9578  98.6318  98.3058  97.9800  97.6542  97.3286  97.0031  96.6779
 PRANDTL NUMBER    0.6260   0.6261   0.6262   0.6264   0.6265   0.6266   0.6267   0.6268

  WITH FROZEN REACTIONS

 Cp, KJ/(KG)(K)   20.7007  20.6993  20.6980  20.6967  20.6954  20.6941  20.6928  20.6914
 CONDUCTIVITY     28.3188  28.3282  28.3376  28.3471  28.3567  28.3663  28.3760  28.3857
 PRANDTL NUMBER    0.7231   0.7230   0.7228   0.7227   0.7225   0.7223   0.7222   0.7220

 MASS FRACTIONS

 *H               0.69229  0.69410  0.69590  0.69770  0.69948  0.70126  0.70303  0.70479
 *H+              0.00004  0.00004  0.00004  0.00004  0.00004  0.00004  0.00004  0.00004
 *H-              0.00001  0.00001  0.00001  0.00001  0.00001  0.00001  0.00001  0.00001
 *H2              0.30765  0.30584  0.30404  0.30224  0.30045  0.29868  0.29691  0.29515
 *H2+             0.00002  0.00002  0.00002  0.00002  0.00002  0.00002  0.00002  0.00002

  * THERMODYNAMIC PROPERTIES FITTED TO 20000.K

 NOTE. WEIGHT FRACTION OF FUEL IN TOTAL FUELS AND OF OXIDANT IN TOTAL OXIDANTS









               THERMODYNAMIC EQUILIBRIUM PROPERTIES AT ASSIGNED

                           TEMPERATURE AND PRESSURE

 CASE =                

             REACTANT                    WT FRACTION      ENERGY      TEMP
                                          (SEE NOTE)     KJ/KG-MOL      K  
 FUEL        H2                           1.0000000         0.000      0.000
 OXIDANT     H2                           1.0000000         0.000      0.000

 O/F=    1.00000  %FUEL= 50.000000  R,EQ.RATIO= 0.000000  PHI,EQ.RATIO=-1.000000

 THERMODYNAMIC PROPERTIES

 P, BAR            440.00   440.00   440.00   490.00   490.00   490.00   490.00   490.00
 T, K             7520.00  7530.00  7540.00  7400.00  7410.00  7420.00  7430.00  7440.00
 RHO, KG/CU M    8.3122-1 8.2927-1 8.2733-1 9.6406-1 9.6167-1 9.5929-1 9.5693-1 9.5458-1
 H, KJ/KG        297765.0 298373.7 298980.4 285747.0 286388.9 287029.0 287667.1 288303.3
 U, KJ/KG        244830.5 245314.7 245797.0 234920.2 235435.8 235949.6 236461.6 236971.7
 G, KJ/KG       -625359.2-626587.2-627815.9-605184.9-606389.3-607594.5-608800.7-610007.6
 S, KJ/(KG)(K)   122.7559 122.8368 122.9173 120.3962 120.4829 120.5692 120.6552 120.7407

 M, (1/n)           1.181    1.180    1.179    1.211    1.209    1.208    1.206    1.205
 (dLV/dLP)t      -1.10369 -1.10333 -1.10297 -1.11138 -1.11106 -1.11075 -1.11043 -1.11011
 (dLV/dLT)p        1.7698   1.7661   1.7624   1.8402   1.8367   1.8332   1.8297   1.8262
 Cp, KJ/(KG)(K)   60.9769  60.7713  60.5656  64.2913  64.1002  63.9087  63.7167  63.5244
 GAMMAs            1.3475   1.3483   1.3491   1.3340   1.3348   1.3355   1.3363   1.3371
 SON VEL,M/SEC     8445.6   8458.0   8470.5   8234.3   8246.9   8259.4   8272.0   8284.5

 TRANSPORT PROPERTIES (GASES ONLY)
   CONDUCTIVITY IN UNITS OF MILLIWATTS/(CM)(K)

 VISC,MILLIPOISE  0.99068  0.99086  0.99105  0.99959  0.99980   1.0000   1.0002   1.0004

  WITH EQUILIBRIUM REACTIONS

 Cp, KJ/(KG)(K)   60.9769  60.7713  60.5656  64.2913  64.1002  63.9087  63.7167  63.5244
 CONDUCTIVITY     96.3529  96.0282  95.7038 102.8355 102.5263 102.2168 101.9068 101.5964
 PRANDTL NUMBER    0.6270   0.6271   0.6272   0.6249   0.6251   0.6252   0.6254   0.6255

  WITH FROZEN REACTIONS

 Cp, KJ/(KG)(K)   20.6901  20.6888  20.6875  20.7104  20.7091  20.7077  20.7063  20.7049
 CONDUCTIVITY     28.3955  28.4054  28.4153  28.5488  28.5579  28.5671  28.5764  28.5857
 PRANDTL NUMBER    0.7218   0.7217   0.7215   0.7251   0.7250   0.7249   0.7247   0.7246

 MASS FRACTIONS

 *H               0.70653  0.70827  0.71001  0.66519  0.66707  0.66895  0.67082  0.67268
 *H+              0.00004  0.00004  0.00004  0.00003  0.00003  0.00003  0.00003  0.00003
 *H-              0.00001  0.00001  0.00001  0.00001  0.00001  0.00001  0.00001  0.00001
 *H2              0.29340  0.29166  0.28993  0.33476  0.33287  0.33100  0.32913  0.32727
 *H2+             0.00002  0.00002  0.00002  0.00001  0.00002  0.00002  0.00002  0.00002

  * THERMODYNAMIC PROPERTIES FITTED TO 20000.K

 NOTE. WEIGHT FRACTION OF FUEL IN TOTAL FUELS AND OF OXIDANT IN TOTAL OXIDANTS









               THERMODYNAMIC EQUILIBRIUM PROPERTIES AT ASSIGNED

                           TEMPERATURE AND PRESSURE

 CASE =                

             REACTANT                    WT FRACTION      ENERGY      TEMP
                                          (SEE NOTE)     KJ/KG-MOL      K  
 FUEL        H2                           1.0000000         0.000      0.000
 OXIDANT     H2                           1.0000000         0.000      0.000

 O/F=    1.00000  %FUEL= 50.000000  R,EQ.RATIO= 0.000000  PHI,EQ.RATIO=-1.000000

 THERMODYNAMIC PROPERTIES

 P, BAR            490.00   490.00   490.00   490.00   490.00   490.00   490.00   490.00
 T, K             7450.00  7460.00  7470.00  7480.00  7490.00  7500.00  7510.00  7520.00
 RHO, KG/CU M    9.5224-1 9.4992-1 9.4761-1 9.4531-1 9.4303-1 9.4076-1 9.3850-1 9.3626-1
 H, KJ/KG        288937.6 289570.0 290200.4 290828.9 291455.4 292080.0 292702.7 293323.4
 U, KJ/KG        237480.1 237986.6 238491.3 238994.1 239495.2 239994.4 240491.7 240987.3
 G, KJ/KG       -611215.5-612424.2-613633.7-614844.1-616055.3-617267.3-618480.2-619693.9
 S, KJ/(KG)(K)   120.8259 120.9107 120.9952 121.0793 121.1630 121.2463 121.3293 121.4119

 M, (1/n)           1.204    1.202    1.201    1.200    1.199    1.197    1.196    1.195
 (dLV/dLP)t      -1.10979 -1.10947 -1.10914 -1.10882 -1.10849 -1.10816 -1.10782 -1.10749
 (dLV/dLT)p        1.8226   1.8191   1.8156   1.8121   1.8085   1.8050   1.8015   1.7979
 Cp, KJ/(KG)(K)   63.3317  63.1387  62.9454  62.7518  62.5579  62.3638  62.1695  61.9749
 GAMMAs            1.3378   1.3386   1.3393   1.3401   1.3409   1.3417   1.3424   1.3432
 SON VEL,M/SEC     8297.0   8309.6   8322.1   8334.5   8347.0   8359.5   8371.9   8384.4

 TRANSPORT PROPERTIES (GASES ONLY)
   CONDUCTIVITY IN UNITS OF MILLIWATTS/(CM)(K)

 VISC,MILLIPOISE   1.0006   1.0008   1.0010   1.0012   1.0014   1.0016   1.0018   1.0020

  WITH EQUILIBRIUM REACTIONS

 Cp, KJ/(KG)(K)   63.3317  63.1387  62.9454  62.7518  62.5579  62.3638  62.1695  61.9749
 CONDUCTIVITY    101.2858 100.9748 100.6636 100.3522 100.0406  99.7289  99.4170  99.1051
 PRANDTL NUMBER    0.6257   0.6258   0.6259   0.6261   0.6262   0.6264   0.6265   0.6266

  WITH FROZEN REACTIONS

 Cp, KJ/(KG)(K)   20.7035  20.7021  20.7007  20.6993  20.6979  20.6965  20.6951  20.6937
 CONDUCTIVITY     28.5950  28.6043  28.6137  28.6232  28.6327  28.6422  28.6518  28.6614
 PRANDTL NUMBER    0.7245   0.7243   0.7242   0.7241   0.7239   0.7238   0.7236   0.7235

 MASS FRACTIONS

 *H               0.67453  0.67637  0.67821  0.68003  0.68185  0.68366  0.68546  0.68725
 *H+              0.00003  0.00003  0.00003  0.00004  0.00004  0.00004  0.00004  0.00004
 *H-              0.00001  0.00001  0.00001  0.00001  0.00001  0.00001  0.00001  0.00001
 *H2              0.32542  0.32357  0.32174  0.31991  0.31809  0.31628  0.31448  0.31268
 *H2+             0.00002  0.00002  0.00002  0.00002  0.00002  0.00002  0.00002  0.00002

  * THERMODYNAMIC PROPERTIES FITTED TO 20000.K

 NOTE. WEIGHT FRACTION OF FUEL IN TOTAL FUELS AND OF OXIDANT IN TOTAL OXIDANTS









               THERMODYNAMIC EQUILIBRIUM PROPERTIES AT ASSIGNED

                           TEMPERATURE AND PRESSURE

 CASE =                

             REACTANT                    WT FRACTION      ENERGY      TEMP
                                          (SEE NOTE)     KJ/KG-MOL      K  
 FUEL        H2                           1.0000000         0.000      0.000
 OXIDANT     H2                           1.0000000         0.000      0.000

 O/F=    1.00000  %FUEL= 50.000000  R,EQ.RATIO= 0.000000  PHI,EQ.RATIO=-1.000000

 THERMODYNAMIC PROPERTIES

 P, BAR            490.00   490.00   540.00   540.00   540.00   540.00   540.00   540.00
 T, K             7530.00  7540.00  7400.00  7410.00  7420.00  7430.00  7440.00  7450.00
 RHO, KG/CU M    9.3402-1 9.3180-1 1.0741 0 1.0714 0 1.0688 0 1.0661 0 1.0635 0 1.0608 0
 H, KJ/KG        293942.2 294559.0 281567.2 282215.4 282861.8 283506.5 284149.3 284790.4
 U, KJ/KG        241481.0 241972.8 231294.5 231816.3 232336.3 232854.7 233371.4 233886.4
 G, KJ/KG       -620908.4-622123.8-600273.2-601465.3-602658.3-603852.2-605046.9-606242.5
 S, KJ/(KG)(K)   121.4941 121.5760 119.1676 119.2552 119.3423 119.4292 119.5156 119.6017

 M, (1/n)           1.193    1.192    1.224    1.222    1.221    1.220    1.218    1.217
 (dLV/dLP)t      -1.10716 -1.10682 -1.11421 -1.11393 -1.11364 -1.11335 -1.11306 -1.11277
 (dLV/dLT)p        1.7944   1.7908   1.8615   1.8582   1.8549   1.8516   1.8483   1.8449
 Cp, KJ/(KG)(K)   61.7802  61.5854  64.9114  64.7334  64.5548  64.3757  64.1959  64.0157
 GAMMAs            1.3440   1.3448   1.3306   1.3313   1.3321   1.3328   1.3335   1.3343
 SON VEL,M/SEC     8396.8   8409.2   8178.8   8191.3   8203.9   8216.4   8228.9   8241.4

 TRANSPORT PROPERTIES (GASES ONLY)
   CONDUCTIVITY IN UNITS OF MILLIWATTS/(CM)(K)

 VISC,MILLIPOISE   1.0022   1.0024   1.0094   1.0097   1.0099   1.0102   1.0104   1.0106

  WITH EQUILIBRIUM REACTIONS

 Cp, KJ/(KG)(K)   61.7802  61.5854  64.9114  64.7334  64.5548  64.3757  64.1959  64.0157
 CONDUCTIVITY     98.7931  98.4811 104.9664 104.6746 104.3821 104.0889 103.7951 103.5006
 PRANDTL NUMBER    0.6267   0.6269   0.6242   0.6244   0.6246   0.6247   0.6249   0.6251

  WITH FROZEN REACTIONS

 Cp, KJ/(KG)(K)   20.6923  20.6909  20.7146  20.7132  20.7117  20.7103  20.7088  20.7073
 CONDUCTIVITY     28.6711  28.6808  28.7913  28.8005  28.8098  28.8191  28.8285  28.8378
 PRANDTL NUMBER    0.7233   0.7232   0.7263   0.7262   0.7260   0.7259   0.7258   0.7257

 MASS FRACTIONS

 *H               0.68904  0.69081  0.64704  0.64895  0.65085  0.65275  0.65464  0.65652
 *H+              0.00004  0.00004  0.00003  0.00003  0.00003  0.00003  0.00003  0.00003
 *H-              0.00001  0.00001  0.00001  0.00001  0.00001  0.00001  0.00001  0.00001
 *H2              0.31090  0.30912  0.35291  0.35100  0.34909  0.34720  0.34531  0.34342
 *H2+             0.00002  0.00002  0.00002  0.00002  0.00002  0.00002  0.00002  0.00002

  * THERMODYNAMIC PROPERTIES FITTED TO 20000.K

 NOTE. WEIGHT FRACTION OF FUEL IN TOTAL FUELS AND OF OXIDANT IN TOTAL OXIDANTS









               THERMODYNAMIC EQUILIBRIUM PROPERTIES AT ASSIGNED

                           TEMPERATURE AND PRESSURE

 CASE =                

             REACTANT                    WT FRACTION      ENERGY      TEMP
                                          (SEE NOTE)     KJ/KG-MOL      K  
 FUEL        H2                           1.0000000         0.000      0.000
 OXIDANT     H2                           1.0000000         0.000      0.000

 O/F=    1.00000  %FUEL= 50.000000  R,EQ.RATIO= 0.000000  PHI,EQ.RATIO=-1.000000

 THERMODYNAMIC PROPERTIES

 P, BAR            540.00   540.00   540.00   540.00   540.00   540.00   540.00   540.00
 T, K             7460.00  7470.00  7480.00  7490.00  7500.00  7510.00  7520.00  7530.00
 RHO, KG/CU M    1.0582 0 1.0556 0 1.0530 0 1.0504 0 1.0479 0 1.0453 0 1.0428 0 1.0403 0
 H, KJ/KG        285429.6 286067.1 286702.7 287336.5 287968.5 288598.7 289227.0 289853.5
 U, KJ/KG        234399.6 234911.1 235420.9 235929.0 236435.3 236939.9 237442.7 237943.8
 G, KJ/KG       -607438.9-608636.2-609834.4-611033.4-612233.2-613433.9-614635.4-615837.8
 S, KJ/(KG)(K)   119.6875 119.7729 119.8579 119.9426 120.0269 120.1109 120.1945 120.2777

 M, (1/n)           1.215    1.214    1.213    1.211    1.210    1.209    1.207    1.206
 (dLV/dLP)t      -1.11248 -1.11218 -1.11188 -1.11158 -1.11128 -1.11097 -1.11066 -1.11035
 (dLV/dLT)p        1.8416   1.8383   1.8349   1.8315   1.8282   1.8248   1.8214   1.8180
 Cp, KJ/(KG)(K)   63.8350  63.6538  63.4721  63.2900  63.1075  62.9247  62.7414  62.5578
 GAMMAs            1.3350   1.3358   1.3365   1.3373   1.3380   1.3388   1.3395   1.3403
 SON VEL,M/SEC     8253.9   8266.4   8278.8   8291.3   8303.8   8316.2   8328.6   8341.0

 TRANSPORT PROPERTIES (GASES ONLY)
   CONDUCTIVITY IN UNITS OF MILLIWATTS/(CM)(K)

 VISC,MILLIPOISE   1.0108   1.0111   1.0113   1.0115   1.0118   1.0120   1.0122   1.0124

  WITH EQUILIBRIUM REACTIONS

 Cp, KJ/(KG)(K)   63.8350  63.6538  63.4721  63.2900  63.1075  62.9247  62.7414  62.5578
 CONDUCTIVITY    103.2056 102.9100 102.6139 102.3174 102.0204 101.7230 101.4253 101.1272
 PRANDTL NUMBER    0.6252   0.6254   0.6255   0.6257   0.6258   0.6260   0.6261   0.6263

  WITH FROZEN REACTIONS

 Cp, KJ/(KG)(K)   20.7059  20.7044  20.7029  20.7015  20.7000  20.6985  20.6970  20.6955
 CONDUCTIVITY     28.8472  28.8566  28.8661  28.8756  28.8851  28.8946  28.9042  28.9138
 PRANDTL NUMBER    0.7256   0.7254   0.7253   0.7252   0.7251   0.7249   0.7248   0.7247

 MASS FRACTIONS

 *H               0.65839  0.66026  0.66212  0.66397  0.66581  0.66764  0.66947  0.67129
 *H+              0.00003  0.00003  0.00003  0.00003  0.00003  0.00004  0.00004  0.00004
 *H-              0.00001  0.00001  0.00001  0.00001  0.00001  0.00001  0.00001  0.00001
 *H2              0.34155  0.33968  0.33783  0.33597  0.33413  0.33230  0.33047  0.32865
 *H2+             0.00002  0.00002  0.00002  0.00002  0.00002  0.00002  0.00002  0.00002

  * THERMODYNAMIC PROPERTIES FITTED TO 20000.K

 NOTE. WEIGHT FRACTION OF FUEL IN TOTAL FUELS AND OF OXIDANT IN TOTAL OXIDANTS









               THERMODYNAMIC EQUILIBRIUM PROPERTIES AT ASSIGNED

                           TEMPERATURE AND PRESSURE

 CASE =                

             REACTANT                    WT FRACTION      ENERGY      TEMP
                                          (SEE NOTE)     KJ/KG-MOL      K  
 FUEL        H2                           1.0000000         0.000      0.000
 OXIDANT     H2                           1.0000000         0.000      0.000

 O/F=    1.00000  %FUEL= 50.000000  R,EQ.RATIO= 0.000000  PHI,EQ.RATIO=-1.000000

 THERMODYNAMIC PROPERTIES

 P, BAR            540.00   600.00   600.00   600.00   600.00   600.00   600.00   600.00
 T, K             7540.00  7400.00  7410.00  7420.00  7430.00  7440.00  7450.00  7460.00
 RHO, KG/CU M    1.0378 0 1.2081 0 1.2051 0 1.2020 0 1.1990 0 1.1960 0 1.1930 0 1.1900 0
 H, KJ/KG        290478.2 276976.2 277629.6 278281.4 278931.5 279580.0 280226.8 280871.9
 U, KJ/KG        238443.2 227312.2 227839.3 228364.8 228888.7 229411.1 229931.8 230451.0
 G, KJ/KG       -617041.0-595008.5-596187.2-597366.9-598547.5-599728.9-600911.2-602094.4
 S, KJ/(KG)(K)   120.3606 117.8358 117.9240 118.0119 118.0995 118.1867 118.2736 118.3601

 M, (1/n)           1.205    1.239    1.237    1.236    1.234    1.233    1.232    1.230
 (dLV/dLP)t      -1.11004 -1.11694 -1.11669 -1.11644 -1.11619 -1.11593 -1.11568 -1.11541
 (dLV/dLT)p        1.8147   1.8821   1.8790   1.8760   1.8729   1.8698   1.8667   1.8636
 Cp, KJ/(KG)(K)   62.3739  65.4201  65.2572  65.0935  64.9291  64.7640  64.5982  64.4317
 GAMMAs            1.3410   1.3271   1.3278   1.3285   1.3292   1.3299   1.3306   1.3314
 SON VEL,M/SEC     8353.4   8118.3   8130.8   8143.3   8155.8   8168.3   8180.7   8193.2

 TRANSPORT PROPERTIES (GASES ONLY)
   CONDUCTIVITY IN UNITS OF MILLIWATTS/(CM)(K)

 VISC,MILLIPOISE   1.0126   1.0199   1.0202   1.0204   1.0207   1.0210   1.0212   1.0215

  WITH EQUILIBRIUM REACTIONS

 Cp, KJ/(KG)(K)   62.3739  65.4201  65.2572  65.0935  64.9291  64.7640  64.5982  64.4317
 CONDUCTIVITY    100.8288 107.0505 106.7797 106.5079 106.2351 105.9613 105.6867 105.4112
 PRANDTL NUMBER    0.6264   0.6233   0.6235   0.6237   0.6238   0.6240   0.6242   0.6244

  WITH FROZEN REACTIONS

 Cp, KJ/(KG)(K)   20.6941  20.7192  20.7177  20.7162  20.7146  20.7131  20.7116  20.7100
 CONDUCTIVITY     28.9235  29.0542  29.0637  29.0732  29.0828  29.0923  29.1019  29.1114
 PRANDTL NUMBER    0.7245   0.7273   0.7272   0.7271   0.7270   0.7269   0.7268   0.7267

 MASS FRACTIONS

 *H               0.67309  0.62710  0.62904  0.63097  0.63289  0.63480  0.63671  0.63860
 *H+              0.00004  0.00003  0.00003  0.00003  0.00003  0.00003  0.00003  0.00003
 *H-              0.00001  0.00001  0.00001  0.00001  0.00001  0.00001  0.00001  0.00001
 *H2              0.32684  0.37285  0.37091  0.36898  0.36706  0.36515  0.36324  0.36134
 *H2+             0.00002  0.00002  0.00002  0.00002  0.00002  0.00002  0.00002  0.00002

  * THERMODYNAMIC PROPERTIES FITTED TO 20000.K

 NOTE. WEIGHT FRACTION OF FUEL IN TOTAL FUELS AND OF OXIDANT IN TOTAL OXIDANTS









               THERMODYNAMIC EQUILIBRIUM PROPERTIES AT ASSIGNED

                           TEMPERATURE AND PRESSURE

 CASE =                

             REACTANT                    WT FRACTION      ENERGY      TEMP
                                          (SEE NOTE)     KJ/KG-MOL      K  
 FUEL        H2                           1.0000000         0.000      0.000
 OXIDANT     H2                           1.0000000         0.000      0.000

 O/F=    1.00000  %FUEL= 50.000000  R,EQ.RATIO= 0.000000  PHI,EQ.RATIO=-1.000000

 THERMODYNAMIC PROPERTIES

 P, BAR            600.00   600.00   600.00   600.00   600.00   600.00   600.00   600.00
 T, K             7470.00  7480.00  7490.00  7500.00  7510.00  7520.00  7530.00  7540.00
 RHO, KG/CU M    1.1870 0 1.1841 0 1.1811 0 1.1782 0 1.1753 0 1.1724 0 1.1696 0 1.1667 0
 H, KJ/KG        281515.4 282157.2 282797.3 283435.8 284072.5 284707.6 285340.9 285972.6
 U, KJ/KG        230968.6 231484.5 231998.8 232511.6 233022.7 233532.2 234040.0 234546.2
 G, KJ/KG       -603278.4-604463.3-605649.1-606835.7-608023.1-609211.4-610400.6-611590.5
 S, KJ/(KG)(K)   118.4463 118.5322 118.6177 118.7029 118.7877 118.8722 118.9564 119.0402

 M, (1/n)           1.229    1.227    1.226    1.225    1.223    1.222    1.220    1.219
 (dLV/dLP)t      -1.11515 -1.11488 -1.11462 -1.11434 -1.11407 -1.11380 -1.11352 -1.11324
 (dLV/dLT)p        1.8604   1.8573   1.8542   1.8510   1.8478   1.8446   1.8415   1.8383
 Cp, KJ/(KG)(K)   64.2646  64.0969  63.9286  63.7597  63.5902  63.4202  63.2498  63.0788
 GAMMAs            1.3321   1.3328   1.3335   1.3342   1.3350   1.3357   1.3364   1.3372
 SON VEL,M/SEC     8205.6   8218.1   8230.5   8242.9   8255.3   8267.7   8280.1   8292.5

 TRANSPORT PROPERTIES (GASES ONLY)
   CONDUCTIVITY IN UNITS OF MILLIWATTS/(CM)(K)

 VISC,MILLIPOISE   1.0218   1.0220   1.0223   1.0226   1.0228   1.0231   1.0233   1.0236

  WITH EQUILIBRIUM REACTIONS

 Cp, KJ/(KG)(K)   64.2646  64.0969  63.9286  63.7597  63.5902  63.4202  63.2498  63.0788
 CONDUCTIVITY    105.1348 104.8577 104.5797 104.3011 104.0218 103.7417 103.4611 103.1799
 PRANDTL NUMBER    0.6246   0.6247   0.6249   0.6251   0.6253   0.6254   0.6256   0.6258

  WITH FROZEN REACTIONS

 Cp, KJ/(KG)(K)   20.7085  20.7069  20.7054  20.7038  20.7023  20.7007  20.6991  20.6976
 CONDUCTIVITY     29.1210  29.1306  29.1402  29.1498  29.1595  29.1692  29.1788  29.1886
 PRANDTL NUMBER    0.7266   0.7265   0.7264   0.7263   0.7262   0.7260   0.7259   0.7258

 MASS FRACTIONS

 *H               0.64050  0.64238  0.64426  0.64613  0.64799  0.64984  0.65169  0.65353
 *H+              0.00003  0.00003  0.00003  0.00003  0.00003  0.00003  0.00003  0.00003
 *H-              0.00001  0.00001  0.00001  0.00001  0.00001  0.00001  0.00001  0.00001
 *H2              0.35945  0.35756  0.35569  0.35382  0.35195  0.35010  0.34825  0.34641
 *H2+             0.00002  0.00002  0.00002  0.00002  0.00002  0.00002  0.00002  0.00002

  * THERMODYNAMIC PROPERTIES FITTED TO 20000.K

 NOTE. WEIGHT FRACTION OF FUEL IN TOTAL FUELS AND OF OXIDANT IN TOTAL OXIDANTS









               THERMODYNAMIC EQUILIBRIUM PROPERTIES AT ASSIGNED

                           TEMPERATURE AND PRESSURE

 CASE =                

             REACTANT                    WT FRACTION      ENERGY      TEMP
                                          (SEE NOTE)     KJ/KG-MOL      K  
 FUEL        H2                           1.0000000         0.000      0.000
 OXIDANT     H2                           1.0000000         0.000      0.000

 O/F=    1.00000  %FUEL= 50.000000  R,EQ.RATIO= 0.000000  PHI,EQ.RATIO=-1.000000

 THERMODYNAMIC PROPERTIES

 P, BAR            670.00   670.00   670.00   670.00   670.00   670.00   670.00   670.00
 T, K             7400.00  7410.00  7420.00  7430.00  7440.00  7450.00  7460.00  7470.00
 RHO, KG/CU M    1.3668 0 1.3633 0 1.3598 0 1.3563 0 1.3529 0 1.3495 0 1.3460 0 1.3427 0
 H, KJ/KG        272121.6 272778.6 273434.1 274088.1 274740.6 275391.6 276041.1 276689.1
 U, KJ/KG        223101.1 223632.2 224161.8 224690.0 225216.7 225742.0 226265.8 226788.2
 G, KJ/KG       -589563.6-590728.5-591894.2-593060.9-594228.4-595396.8-596566.1-597736.2
 S, KJ/(KG)(K)   116.4439 116.5327 116.6211 116.7091 116.7969 116.8843 116.9715 117.0583

 M, (1/n)           1.255    1.254    1.252    1.251    1.249    1.248    1.246    1.245
 (dLV/dLP)t      -1.11940 -1.11919 -1.11898 -1.11876 -1.11855 -1.11833 -1.11810 -1.11788
 (dLV/dLT)p        1.9006   1.8978   1.8950   1.8922   1.8894   1.8865   1.8836   1.8808
 Cp, KJ/(KG)(K)   65.7678  65.6213  65.4738  65.3255  65.1764  65.0264  64.8756  64.7241
 GAMMAs            1.3235   1.3242   1.3249   1.3256   1.3263   1.3270   1.3277   1.3284
 SON VEL,M/SEC     8054.8   8067.3   8079.7   8092.1   8104.5   8116.9   8129.3   8141.7

 TRANSPORT PROPERTIES (GASES ONLY)
   CONDUCTIVITY IN UNITS OF MILLIWATTS/(CM)(K)

 VISC,MILLIPOISE   1.0305   1.0308   1.0311   1.0315   1.0318   1.0321   1.0324   1.0327

  WITH EQUILIBRIUM REACTIONS

 Cp, KJ/(KG)(K)   65.7678  65.6213  65.4738  65.3255  65.1764  65.0264  64.8756  64.7241
 CONDUCTIVITY    108.9617 108.7149 108.4668 108.2175 107.9669 107.7152 107.4623 107.2083
 PRANDTL NUMBER    0.6220   0.6222   0.6224   0.6226   0.6228   0.6231   0.6233   0.6235

  WITH FROZEN REACTIONS

 Cp, KJ/(KG)(K)   20.7241  20.7225  20.7209  20.7193  20.7177  20.7160  20.7144  20.7128
 CONDUCTIVITY     29.3278  29.3377  29.3477  29.3576  29.3675  29.3774  29.3873  29.3972
 PRANDTL NUMBER    0.7282   0.7281   0.7280   0.7280   0.7279   0.7278   0.7277   0.7276

 MASS FRACTIONS

 *H               0.60602  0.60797  0.60992  0.61185  0.61378  0.61571  0.61763  0.61954
 *H+              0.00002  0.00003  0.00003  0.00003  0.00003  0.00003  0.00003  0.00003
 *H-              0.00001  0.00001  0.00001  0.00001  0.00001  0.00001  0.00001  0.00001
 *H2              0.39393  0.39198  0.39003  0.38810  0.38616  0.38424  0.38232  0.38041
 *H2+             0.00002  0.00002  0.00002  0.00002  0.00002  0.00002  0.00002  0.00002

  * THERMODYNAMIC PROPERTIES FITTED TO 20000.K

 NOTE. WEIGHT FRACTION OF FUEL IN TOTAL FUELS AND OF OXIDANT IN TOTAL OXIDANTS









               THERMODYNAMIC EQUILIBRIUM PROPERTIES AT ASSIGNED

                           TEMPERATURE AND PRESSURE

 CASE =                

             REACTANT                    WT FRACTION      ENERGY      TEMP
                                          (SEE NOTE)     KJ/KG-MOL      K  
 FUEL        H2                           1.0000000         0.000      0.000
 OXIDANT     H2                           1.0000000         0.000      0.000

 O/F=    1.00000  %FUEL= 50.000000  R,EQ.RATIO= 0.000000  PHI,EQ.RATIO=-1.000000

 THERMODYNAMIC PROPERTIES

 P, BAR            670.00   670.00   670.00   670.00   670.00   670.00   670.00   740.00
 T, K             7480.00  7490.00  7500.00  7510.00  7520.00  7530.00  7540.00  7400.00
 RHO, KG/CU M    1.3393 0 1.3359 0 1.3326 0 1.3293 0 1.3260 0 1.3227 0 1.3194 0 1.5277 0
 H, KJ/KG        277335.6 277980.5 278623.9 279265.8 279906.1 280544.9 281182.1 267726.0
 U, KJ/KG        227309.0 227828.4 228346.3 228862.7 229377.6 229891.0 230402.9 219288.3
 G, KJ/KG       -598907.3-600079.1-601251.9-602425.5-603599.9-604775.2-605951.4-584721.2
 S, KJ/(KG)(K)   117.1448 117.2309 117.3168 117.4023 117.4875 117.5724 117.6570 115.1956

 M, (1/n)           1.243    1.242    1.240    1.239    1.237    1.236    1.235    1.270
 (dLV/dLP)t      -1.11765 -1.11741 -1.11718 -1.11694 -1.11670 -1.11646 -1.11621 -1.12124
 (dLV/dLT)p        1.8779   1.8750   1.8721   1.8691   1.8662   1.8632   1.8603   1.9145
 Cp, KJ/(KG)(K)   64.5718  64.4187  64.2649  64.1104  63.9552  63.7994  63.6429  65.9192
 GAMMAs            1.3291   1.3298   1.3305   1.3312   1.3319   1.3326   1.3333   1.3205
 SON VEL,M/SEC     8154.1   8166.5   8178.9   8191.2   8203.6   8215.9   8228.3   7997.6

 TRANSPORT PROPERTIES (GASES ONLY)
   CONDUCTIVITY IN UNITS OF MILLIWATTS/(CM)(K)

 VISC,MILLIPOISE   1.0330   1.0333   1.0336   1.0339   1.0342   1.0345   1.0348   1.0397

  WITH EQUILIBRIUM REACTIONS

 Cp, KJ/(KG)(K)   64.5718  64.4187  64.2649  64.1104  63.9552  63.7994  63.6429  65.9192
 CONDUCTIVITY    106.9532 106.6971 106.4399 106.1818 105.9227 105.6627 105.4018 110.4322
 PRANDTL NUMBER    0.6237   0.6239   0.6240   0.6242   0.6244   0.6246   0.6248   0.6206

  WITH FROZEN REACTIONS

 Cp, KJ/(KG)(K)   20.7112  20.7095  20.7079  20.7062  20.7046  20.7029  20.7013  20.7285
 CONDUCTIVITY     29.4071  29.4171  29.4270  29.4369  29.4468  29.4567  29.4667  29.5712
 PRANDTL NUMBER    0.7275   0.7274   0.7273   0.7272   0.7272   0.7271   0.7270   0.7288

 MASS FRACTIONS

 *H               0.62144  0.62334  0.62523  0.62712  0.62900  0.63087  0.63273  0.58693
 *H+              0.00003  0.00003  0.00003  0.00003  0.00003  0.00003  0.00003  0.00002
 *H-              0.00001  0.00001  0.00001  0.00001  0.00001  0.00001  0.00001  0.00001
 *H2              0.37850  0.37660  0.37471  0.37283  0.37095  0.36907  0.36721  0.41302
 *H2+             0.00002  0.00002  0.00002  0.00002  0.00002  0.00002  0.00002  0.00002

  * THERMODYNAMIC PROPERTIES FITTED TO 20000.K

 NOTE. WEIGHT FRACTION OF FUEL IN TOTAL FUELS AND OF OXIDANT IN TOTAL OXIDANTS









               THERMODYNAMIC EQUILIBRIUM PROPERTIES AT ASSIGNED

                           TEMPERATURE AND PRESSURE

 CASE =                

             REACTANT                    WT FRACTION      ENERGY      TEMP
                                          (SEE NOTE)     KJ/KG-MOL      K  
 FUEL        H2                           1.0000000         0.000      0.000
 OXIDANT     H2                           1.0000000         0.000      0.000

 O/F=    1.00000  %FUEL= 50.000000  R,EQ.RATIO= 0.000000  PHI,EQ.RATIO=-1.000000

 THERMODYNAMIC PROPERTIES

 P, BAR            740.00   740.00   740.00   740.00   740.00   740.00   740.00   740.00
 T, K             7410.00  7420.00  7430.00  7440.00  7450.00  7460.00  7470.00  7480.00
 RHO, KG/CU M    1.5238 0 1.5199 0 1.5160 0 1.5121 0 1.5082 0 1.5044 0 1.5006 0 1.4968 0
 H, KJ/KG        268384.6 269041.8 269697.7 270352.2 271005.4 271657.2 272307.7 272956.8
 U, KJ/KG        219821.5 220353.4 220884.0 221413.3 221941.3 222467.9 222993.2 223517.1
 G, KJ/KG       -585873.6-587026.9-588181.1-589336.1-590492.1-591648.9-592806.6-593965.1
 S, KJ/(KG)(K)   115.2845 115.3731 115.4615 115.5495 115.6372 115.7247 115.8118 115.8987

 M, (1/n)           1.269    1.267    1.266    1.264    1.262    1.261    1.259    1.258
 (dLV/dLP)t      -1.12107 -1.12089 -1.12071 -1.12053 -1.12035 -1.12016 -1.11997 -1.11977
 (dLV/dLT)p        1.9119   1.9094   1.9068   1.9042   1.9016   1.8990   1.8964   1.8937
 Cp, KJ/(KG)(K)   65.7877  65.6552  65.5218  65.3874  65.2520  65.1158  64.9786  64.8406
 GAMMAs            1.3212   1.3218   1.3225   1.3232   1.3239   1.3245   1.3252   1.3259
 SON VEL,M/SEC     8010.0   8022.3   8034.7   8047.0   8059.4   8071.7   8084.1   8096.4

 TRANSPORT PROPERTIES (GASES ONLY)
   CONDUCTIVITY IN UNITS OF MILLIWATTS/(CM)(K)

 VISC,MILLIPOISE   1.0401   1.0404   1.0408   1.0411   1.0415   1.0418   1.0422   1.0425

  WITH EQUILIBRIUM REACTIONS

 Cp, KJ/(KG)(K)   65.7877  65.6552  65.5218  65.3874  65.2520  65.1158  64.9786  64.8406
 CONDUCTIVITY    110.2085 109.9833 109.7565 109.5284 109.2988 109.0679 108.8356 108.6020
 PRANDTL NUMBER    0.6208   0.6211   0.6213   0.6215   0.6218   0.6220   0.6222   0.6224

  WITH FROZEN REACTIONS

 Cp, KJ/(KG)(K)   20.7268  20.7251  20.7235  20.7218  20.7201  20.7184  20.7167  20.7150
 CONDUCTIVITY     29.5816  29.5921  29.6025  29.6129  29.6233  29.6336  29.6440  29.6543
 PRANDTL NUMBER    0.7287   0.7287   0.7286   0.7285   0.7285   0.7284   0.7283   0.7283

 MASS FRACTIONS

 *H               0.58889  0.59084  0.59279  0.59473  0.59666  0.59859  0.60051  0.60243
 *H+              0.00002  0.00002  0.00002  0.00002  0.00003  0.00003  0.00003  0.00003
 *H-              0.00001  0.00001  0.00001  0.00001  0.00001  0.00001  0.00001  0.00001
 *H2              0.41106  0.40911  0.40716  0.40522  0.40329  0.40136  0.39944  0.39752
 *H2+             0.00002  0.00002  0.00002  0.00002  0.00002  0.00002  0.00002  0.00002

  * THERMODYNAMIC PROPERTIES FITTED TO 20000.K

 NOTE. WEIGHT FRACTION OF FUEL IN TOTAL FUELS AND OF OXIDANT IN TOTAL OXIDANTS









               THERMODYNAMIC EQUILIBRIUM PROPERTIES AT ASSIGNED

                           TEMPERATURE AND PRESSURE

 CASE =                

             REACTANT                    WT FRACTION      ENERGY      TEMP
                                          (SEE NOTE)     KJ/KG-MOL      K  
 FUEL        H2                           1.0000000         0.000      0.000
 OXIDANT     H2                           1.0000000         0.000      0.000

 O/F=    1.00000  %FUEL= 50.000000  R,EQ.RATIO= 0.000000  PHI,EQ.RATIO=-1.000000

 THERMODYNAMIC PROPERTIES

 P, BAR            740.00   740.00   740.00   740.00   740.00   740.00   825.00   825.00
 T, K             7490.00  7500.00  7510.00  7520.00  7530.00  7540.00  7400.00  7410.00
 RHO, KG/CU M    1.4930 0 1.4892 0 1.4855 0 1.4818 0 1.4781 0 1.4744 0 1.7260 0 1.7215 0
 H, KJ/KG        273604.5 274250.8 274895.8 275539.3 276181.4 276822.0 262908.6 263567.2
 U, KJ/KG        224039.6 224560.8 225080.6 225599.1 226116.2 226631.8 215109.6 215643.7
 G, KJ/KG       -595124.5-596284.8-597446.0-598608.0-599770.8-600934.5-579489.2-580628.0
 S, KJ/(KG)(K)   115.9852 116.0714 116.1574 116.2430 116.3283 116.4133 113.8375 113.9265

 M, (1/n)           1.256    1.255    1.253    1.252    1.251    1.249    1.287    1.286
 (dLV/dLP)t      -1.11958 -1.11938 -1.11917 -1.11897 -1.11876 -1.11855 -1.12284 -1.12271
 (dLV/dLT)p        1.8911   1.8884   1.8857   1.8830   1.8803   1.8775   1.9265   1.9243
 Cp, KJ/(KG)(K)   64.7018  64.5621  64.4216  64.2803  64.1382  63.9953  65.9128  65.7977
 GAMMAs            1.3266   1.3273   1.3279   1.3286   1.3293   1.3300   1.3173   1.3180
 SON VEL,M/SEC     8108.7   8121.0   8133.4   8145.7   8158.0   8170.2   7935.1   7947.4

 TRANSPORT PROPERTIES (GASES ONLY)
   CONDUCTIVITY IN UNITS OF MILLIWATTS/(CM)(K)

 VISC,MILLIPOISE   1.0429   1.0432   1.0436   1.0439   1.0442   1.0446   1.0493   1.0497

  WITH EQUILIBRIUM REACTIONS

 Cp, KJ/(KG)(K)   64.7018  64.5621  64.4216  64.2803  64.1382  63.9953  65.9128  65.7977
 CONDUCTIVITY    108.3671 108.1310 107.8937 107.6551 107.4155 107.1747 111.7595 111.5621
 PRANDTL NUMBER    0.6227   0.6229   0.6231   0.6233   0.6235   0.6237   0.6188   0.6191

  WITH FROZEN REACTIONS

 Cp, KJ/(KG)(K)   20.7133  20.7116  20.7099  20.7081  20.7064  20.7047  20.7333  20.7316
 CONDUCTIVITY     29.6646  29.6749  29.6852  29.6955  29.7057  29.7160  29.8326  29.8438
 PRANDTL NUMBER    0.7282   0.7281   0.7280   0.7280   0.7279   0.7278   0.7292   0.7292

 MASS FRACTIONS

 *H               0.60434  0.60624  0.60814  0.61003  0.61192  0.61380  0.56601  0.56797
 *H+              0.00003  0.00003  0.00003  0.00003  0.00003  0.00003  0.00002  0.00002
 *H-              0.00001  0.00001  0.00001  0.00001  0.00001  0.00001  0.00001  0.00001
 *H2              0.39561  0.39370  0.39180  0.38991  0.38802  0.38614  0.43394  0.43198
 *H2+             0.00002  0.00002  0.00002  0.00002  0.00002  0.00002  0.00002  0.00002

  * THERMODYNAMIC PROPERTIES FITTED TO 20000.K

 NOTE. WEIGHT FRACTION OF FUEL IN TOTAL FUELS AND OF OXIDANT IN TOTAL OXIDANTS









               THERMODYNAMIC EQUILIBRIUM PROPERTIES AT ASSIGNED

                           TEMPERATURE AND PRESSURE

 CASE =                

             REACTANT                    WT FRACTION      ENERGY      TEMP
                                          (SEE NOTE)     KJ/KG-MOL      K  
 FUEL        H2                           1.0000000         0.000      0.000
 OXIDANT     H2                           1.0000000         0.000      0.000

 O/F=    1.00000  %FUEL= 50.000000  R,EQ.RATIO= 0.000000  PHI,EQ.RATIO=-1.000000

 THERMODYNAMIC PROPERTIES

 P, BAR            825.00   825.00   825.00   825.00   825.00   825.00   825.00   825.00
 T, K             7420.00  7430.00  7440.00  7450.00  7460.00  7470.00  7480.00  7490.00
 RHO, KG/CU M    1.7170 0 1.7126 0 1.7082 0 1.7038 0 1.6994 0 1.6951 0 1.6908 0 1.6865 0
 H, KJ/KG        264224.6 264880.8 265535.8 266189.7 266842.4 267493.8 268144.1 268793.1
 U, KJ/KG        216176.6 216708.4 217239.0 217768.4 218296.6 218823.6 219349.3 219873.9
 G, KJ/KG       -581767.7-582908.3-584049.8-585192.1-586335.4-587479.5-588624.4-589770.3
 S, KJ/(KG)(K)   114.0151 114.1035 114.1916 114.2794 114.3670 114.4543 114.5412 114.6280

 M, (1/n)           1.284    1.282    1.281    1.279    1.278    1.276    1.275    1.273
 (dLV/dLP)t      -1.12257 -1.12244 -1.12229 -1.12215 -1.12200 -1.12185 -1.12170 -1.12154
 (dLV/dLT)p        1.9220   1.9197   1.9174   1.9151   1.9128   1.9104   1.9080   1.9057
 Cp, KJ/(KG)(K)   65.6817  65.5645  65.4463  65.3271  65.2069  65.0858  64.9636  64.8405
 GAMMAs            1.3186   1.3193   1.3199   1.3206   1.3212   1.3219   1.3225   1.3232
 SON VEL,M/SEC     7959.7   7971.9   7984.2   7996.5   8008.7   8021.0   8033.3   8045.5

 TRANSPORT PROPERTIES (GASES ONLY)
   CONDUCTIVITY IN UNITS OF MILLIWATTS/(CM)(K)

 VISC,MILLIPOISE   1.0501   1.0506   1.0510   1.0514   1.0518   1.0522   1.0526   1.0530

  WITH EQUILIBRIUM REACTIONS

 Cp, KJ/(KG)(K)   65.6817  65.5645  65.4463  65.3271  65.2069  65.0858  64.9636  64.8405
 CONDUCTIVITY    111.3631 111.1623 110.9599 110.7559 110.5503 110.3431 110.1344 109.9242
 PRANDTL NUMBER    0.6194   0.6196   0.6199   0.6201   0.6204   0.6206   0.6209   0.6211

  WITH FROZEN REACTIONS

 Cp, KJ/(KG)(K)   20.7298  20.7281  20.7263  20.7246  20.7228  20.7210  20.7192  20.7174
 CONDUCTIVITY     29.8549  29.8660  29.8770  29.8881  29.8990  29.9100  29.9209  29.9318
 PRANDTL NUMBER    0.7292   0.7291   0.7291   0.7290   0.7290   0.7289   0.7289   0.7288

 MASS FRACTIONS

 *H               0.56992  0.57187  0.57381  0.57575  0.57768  0.57961  0.58153  0.58344
 *H+              0.00002  0.00002  0.00002  0.00002  0.00002  0.00002  0.00002  0.00002
 *H-              0.00001  0.00001  0.00001  0.00001  0.00001  0.00001  0.00001  0.00001
 *H2              0.43003  0.42808  0.42614  0.42420  0.42227  0.42034  0.41842  0.41650
 *H2+             0.00002  0.00002  0.00002  0.00002  0.00002  0.00002  0.00002  0.00002

  * THERMODYNAMIC PROPERTIES FITTED TO 20000.K

 NOTE. WEIGHT FRACTION OF FUEL IN TOTAL FUELS AND OF OXIDANT IN TOTAL OXIDANTS









               THERMODYNAMIC EQUILIBRIUM PROPERTIES AT ASSIGNED

                           TEMPERATURE AND PRESSURE

 CASE =                

             REACTANT                    WT FRACTION      ENERGY      TEMP
                                          (SEE NOTE)     KJ/KG-MOL      K  
 FUEL        H2                           1.0000000         0.000      0.000
 OXIDANT     H2                           1.0000000         0.000      0.000

 O/F=    1.00000  %FUEL= 50.000000  R,EQ.RATIO= 0.000000  PHI,EQ.RATIO=-1.000000

 THERMODYNAMIC PROPERTIES

 P, BAR            825.00   825.00   825.00   825.00   825.00   910.00   910.00   910.00
 T, K             7500.00  7510.00  7520.00  7530.00  7540.00  7400.00  7410.00  7420.00
 RHO, KG/CU M    1.6822 0 1.6779 0 1.6737 0 1.6695 0 1.6653 0 1.9270 0 1.9220 0 1.9170 0
 H, KJ/KG        269440.9 270087.4 270732.7 271376.8 272019.5 258572.3 259229.4 259885.4
 U, KJ/KG        220397.2 220919.3 221440.2 221959.8 222478.1 211348.2 211881.8 212414.4
 G, KJ/KG       -590917.0-592064.6-593213.0-594362.3-595512.4-574830.1-575956.8-577084.4
 S, KJ/(KG)(K)   114.7144 114.8005 114.8864 114.9720 115.0573 112.6219 112.7107 112.7992

 M, (1/n)           1.271    1.270    1.268    1.267    1.265    1.303    1.301    1.300
 (dLV/dLP)t      -1.12138 -1.12121 -1.12105 -1.12088 -1.12070 -1.12390 -1.12381 -1.12371
 (dLV/dLT)p        1.9033   1.9008   1.8984   1.8959   1.8935   1.9345   1.9326   1.9306
 Cp, KJ/(KG)(K)   64.7165  64.5916  64.4657  64.3390  64.2115  65.7579  65.6575  65.5561
 GAMMAs            1.3239   1.3245   1.3252   1.3259   1.3265   1.3146   1.3152   1.3158
 SON VEL,M/SEC     8057.7   8070.0   8082.2   8094.4   8106.7   7879.0   7891.2   7903.4

 TRANSPORT PROPERTIES (GASES ONLY)
   CONDUCTIVITY IN UNITS OF MILLIWATTS/(CM)(K)

 VISC,MILLIPOISE   1.0534   1.0538   1.0541   1.0545   1.0549   1.0575   1.0580   1.0585

  WITH EQUILIBRIUM REACTIONS

 Cp, KJ/(KG)(K)   64.7165  64.5916  64.4657  64.3390  64.2115  65.7579  65.6575  65.5561
 CONDUCTIVITY    109.7126 109.4995 109.2849 109.0691 108.8518 112.6993 112.5264 112.3516
 PRANDTL NUMBER    0.6214   0.6216   0.6218   0.6221   0.6223   0.6170   0.6173   0.6176

  WITH FROZEN REACTIONS

 Cp, KJ/(KG)(K)   20.7156  20.7138  20.7120  20.7102  20.7084  20.7377  20.7359  20.7341
 CONDUCTIVITY     29.9427  29.9536  29.9644  29.9752  29.9860  30.0625  30.0745  30.0864
 PRANDTL NUMBER    0.7288   0.7287   0.7286   0.7286   0.7285   0.7295   0.7295   0.7294

 MASS FRACTIONS

 *H               0.58535  0.58726  0.58916  0.59105  0.59294  0.54718  0.54913  0.55108
 *H+              0.00003  0.00003  0.00003  0.00003  0.00003  0.00002  0.00002  0.00002
 *H-              0.00001  0.00001  0.00001  0.00001  0.00001  0.00001  0.00001  0.00001
 *H2              0.41459  0.41269  0.41079  0.40889  0.40700  0.45278  0.45082  0.44888
 *H2+             0.00002  0.00002  0.00002  0.00002  0.00002  0.00002  0.00002  0.00002

  * THERMODYNAMIC PROPERTIES FITTED TO 20000.K

 NOTE. WEIGHT FRACTION OF FUEL IN TOTAL FUELS AND OF OXIDANT IN TOTAL OXIDANTS









               THERMODYNAMIC EQUILIBRIUM PROPERTIES AT ASSIGNED

                           TEMPERATURE AND PRESSURE

 CASE =                

             REACTANT                    WT FRACTION      ENERGY      TEMP
                                          (SEE NOTE)     KJ/KG-MOL      K  
 FUEL        H2                           1.0000000         0.000      0.000
 OXIDANT     H2                           1.0000000         0.000      0.000

 O/F=    1.00000  %FUEL= 50.000000  R,EQ.RATIO= 0.000000  PHI,EQ.RATIO=-1.000000

 THERMODYNAMIC PROPERTIES

 P, BAR            910.00   910.00   910.00   910.00   910.00   910.00   910.00   910.00
 T, K             7430.00  7440.00  7450.00  7460.00  7470.00  7480.00  7490.00  7500.00
 RHO, KG/CU M    1.9120 0 1.9070 0 1.9021 0 1.8972 0 1.8923 0 1.8875 0 1.8826 0 1.8778 0
 H, KJ/KG        260540.5 261194.5 261847.5 262499.4 263150.2 263800.0 264448.7 265096.3
 U, KJ/KG        212945.9 213476.3 214005.7 214534.1 215061.3 215587.5 216112.5 216636.5
 G, KJ/KG       -578212.8-579342.1-580472.3-581603.4-582735.3-583868.1-585001.8-586136.3
 S, KJ/(KG)(K)   112.8874 112.9753 113.0631 113.1505 113.2377 113.3246 113.4113 113.4977

 M, (1/n)           1.298    1.296    1.295    1.293    1.292    1.290    1.288    1.287
 (dLV/dLP)t      -1.12361 -1.12351 -1.12340 -1.12329 -1.12317 -1.12306 -1.12293 -1.12281
 (dLV/dLT)p        1.9286   1.9265   1.9245   1.9224   1.9203   1.9182   1.9160   1.9139
 Cp, KJ/(KG)(K)   65.4535  65.3498  65.2450  65.1392  65.0324  64.9245  64.8156  64.7057
 GAMMAs            1.3165   1.3171   1.3177   1.3184   1.3190   1.3197   1.3203   1.3209
 SON VEL,M/SEC     7915.6   7927.7   7939.9   7952.1   7964.3   7976.5   7988.6   8000.8

 TRANSPORT PROPERTIES (GASES ONLY)
   CONDUCTIVITY IN UNITS OF MILLIWATTS/(CM)(K)

 VISC,MILLIPOISE   1.0589   1.0594   1.0599   1.0603   1.0608   1.0612   1.0617   1.0621

  WITH EQUILIBRIUM REACTIONS

 Cp, KJ/(KG)(K)   65.4535  65.3498  65.2450  65.1392  65.0324  64.9245  64.8156  64.7057
 CONDUCTIVITY    112.1750 111.9966 111.8164 111.6345 111.4509 111.2655 111.0785 110.8898
 PRANDTL NUMBER    0.6179   0.6182   0.6184   0.6187   0.6190   0.6192   0.6195   0.6198

  WITH FROZEN REACTIONS

 Cp, KJ/(KG)(K)   20.7322  20.7304  20.7286  20.7267  20.7249  20.7231  20.7212  20.7193
 CONDUCTIVITY     30.0982  30.1100  30.1217  30.1334  30.1450  30.1566  30.1682  30.1797
 PRANDTL NUMBER    0.7294   0.7294   0.7294   0.7293   0.7293   0.7292   0.7292   0.7292

 MASS FRACTIONS

 *H               0.55302  0.55496  0.55689  0.55882  0.56074  0.56266  0.56458  0.56649
 *H+              0.00002  0.00002  0.00002  0.00002  0.00002  0.00002  0.00002  0.00002
 *H-              0.00001  0.00001  0.00001  0.00001  0.00001  0.00001  0.00001  0.00001
 *H2              0.44693  0.44500  0.44306  0.44113  0.43921  0.43729  0.43537  0.43346
 *H2+             0.00002  0.00002  0.00002  0.00002  0.00002  0.00002  0.00002  0.00002

  * THERMODYNAMIC PROPERTIES FITTED TO 20000.K

 NOTE. WEIGHT FRACTION OF FUEL IN TOTAL FUELS AND OF OXIDANT IN TOTAL OXIDANTS









               THERMODYNAMIC EQUILIBRIUM PROPERTIES AT ASSIGNED

                           TEMPERATURE AND PRESSURE

 CASE =                

             REACTANT                    WT FRACTION      ENERGY      TEMP
                                          (SEE NOTE)     KJ/KG-MOL      K  
 FUEL        H2                           1.0000000         0.000      0.000
 OXIDANT     H2                           1.0000000         0.000      0.000

 O/F=    1.00000  %FUEL= 50.000000  R,EQ.RATIO= 0.000000  PHI,EQ.RATIO=-1.000000

 THERMODYNAMIC PROPERTIES

 P, BAR            910.00   910.00   910.00   910.00
 T, K             7510.00  7520.00  7530.00  7540.00
 RHO, KG/CU M    1.8731 0 1.8683 0 1.8636 0 1.8589 0
 H, KJ/KG        265742.8 266388.2 267032.5 267675.6
 U, KJ/KG        217159.3 217681.0 218201.6 218721.1
 G, KJ/KG       -587271.7-588408.0-589545.1-590683.1
 S, KJ/(KG)(K)   113.5838 113.6697 113.7553 113.8407

 M, (1/n)           1.285    1.284    1.282    1.281
 (dLV/dLP)t      -1.12268 -1.12255 -1.12242 -1.12228
 (dLV/dLT)p        1.9117   1.9095   1.9073   1.9051
 Cp, KJ/(KG)(K)   64.5949  64.4830  64.3702  64.2565
 GAMMAs            1.3216   1.3222   1.3229   1.3235
 SON VEL,M/SEC     8012.9   8025.1   8037.2   8049.4

 TRANSPORT PROPERTIES (GASES ONLY)
   CONDUCTIVITY IN UNITS OF MILLIWATTS/(CM)(K)

 VISC,MILLIPOISE   1.0625   1.0630   1.0634   1.0638

  WITH EQUILIBRIUM REACTIONS

 Cp, KJ/(KG)(K)   64.5949  64.4830  64.3702  64.2565
 CONDUCTIVITY    110.6996 110.5077 110.3143 110.1194
 PRANDTL NUMBER    0.6200   0.6203   0.6205   0.6208

  WITH FROZEN REACTIONS

 Cp, KJ/(KG)(K)   20.7175  20.7156  20.7137  20.7118
 CONDUCTIVITY     30.1912  30.2026  30.2140  30.2254
 PRANDTL NUMBER    0.7291   0.7291   0.7290   0.7290

 MASS FRACTIONS

 *H               0.56839  0.57029  0.57219  0.57408
 *H+              0.00002  0.00002  0.00003  0.00003
 *H-              0.00001  0.00001  0.00001  0.00001
 *H2              0.43156  0.42966  0.42776  0.42587
 *H2+             0.00002  0.00002  0.00002  0.00002

  * THERMODYNAMIC PROPERTIES FITTED TO 20000.K

 NOTE. WEIGHT FRACTION OF FUEL IN TOTAL FUELS AND OF OXIDANT IN TOTAL OXIDANTS



  
