
 *******************************************************************************

         NASA-GLENN CHEMICAL EQUILIBRIUM PROGRAM CEA2, MAY 21, 2004
                   BY  BONNIE MCBRIDE AND SANFORD GORDON
      REFS: NASA RP-1311, PART I, 1994 AND NASA RP-1311, PART II, 1996

 *******************************************************************************



  prob tp ions
  p,bar= 12.0,13.2,14.8,16.5,18.0,20.0,22.5,25.0,28.0,31.0,35.0,39.0,44.0,49.0,54
 .0
  t,k= 4700,4710,4720,4730,4740,4750,4760,4770,4780,4790,4800,4810,4820,4830,4840
  
  
  reac
  fuel H2                wt%=100.0000
  oxid H2                wt%=100.0000
  
  output short
  
  output massf
  
  output siunits
  
  output transport
  
 end





               THERMODYNAMIC EQUILIBRIUM PROPERTIES AT ASSIGNED

                           TEMPERATURE AND PRESSURE

 CASE =                

             REACTANT                    WT FRACTION      ENERGY      TEMP
                                          (SEE NOTE)     KJ/KG-MOL      K  
 FUEL        H2                           1.0000000         0.000      0.000
 OXIDANT     H2                           1.0000000         0.000      0.000

 O/F=    1.00000  %FUEL= 50.000000  R,EQ.RATIO= 0.000000  PHI,EQ.RATIO=-1.000000

 THERMODYNAMIC PROPERTIES

 P, BAR            12.000   12.000   12.000   12.000   12.000   12.000   12.000   12.000
 T, K             4700.00  4710.00  4720.00  4730.00  4740.00  4750.00  4760.00  4770.00
 RHO, KG/CU M    4.0056-2 3.9846-2 3.9638-2 3.9432-2 3.9229-2 3.9027-2 3.8828-2 3.8630-2
 H, KJ/KG        202349.7 203667.4 204981.6 206292.3 207599.2 208902.3 210201.2 211495.7
 U, KJ/KG        172391.4 173551.4 174707.7 175860.5 177009.5 178154.5 179295.4 180431.8
 G, KJ/KG       -412328.0-413636.3-414948.3-416263.1-417580.6-418901.0-420224.0-421549.8
 S, KJ/(KG)(K)   130.7825 131.0623 131.3411 131.6185 131.8945 132.1691 132.4423 132.7139

 M, (1/n)           1.304    1.300    1.296    1.292    1.288    1.284    1.281    1.277
 (dLV/dLP)t      -1.12397 -1.12374 -1.12348 -1.12321 -1.12291 -1.12259 -1.12225 -1.12188
 (dLV/dLT)p        2.4731   2.4672   2.4612   2.4548   2.4483   2.4415   2.4345   2.4273
 Cp, KJ/(KG)(K)  131.9096 131.5899 131.2480 130.8855 130.5024 130.0992 129.6762 129.2336
 GAMMAs            1.2071   1.2078   1.2085   1.2092   1.2099   1.2107   1.2114   1.2121
 SON VEL,M/SEC     6013.6   6031.1   6048.6   6066.2   6083.7   6101.3   6118.8   6136.3

 TRANSPORT PROPERTIES (GASES ONLY)
   CONDUCTIVITY IN UNITS OF MILLIWATTS/(CM)(K)

 VISC,MILLIPOISE  0.71014  0.70998  0.70980  0.70961  0.70939  0.70916  0.70891  0.70864

  WITH EQUILIBRIUM REACTIONS

 Cp, KJ/(KG)(K)  131.9091 131.5898 131.2480 130.8855 130.5024 130.0992 129.6762 129.2336
 CONDUCTIVITY    156.6089 156.0369 155.4420 154.8249 154.1863 153.5264 152.8459 152.1453
 PRANDTL NUMBER    0.5981   0.5987   0.5993   0.5999   0.6004   0.6009   0.6014   0.6019

  WITH FROZEN REACTIONS

 Cp, KJ/(KG)(K)   20.3384  20.3451  20.3517  20.3583  20.3647  20.3710  20.3773  20.3834
 CONDUCTIVITY     19.8586  19.8597  19.8606  19.8613  19.8616  19.8617  19.8615  19.8610
 PRANDTL NUMBER    0.7273   0.7273   0.7274   0.7274   0.7274   0.7273   0.7273   0.7273

 MASS FRACTIONS

 *H               0.54542  0.55026  0.55508  0.55989  0.56468  0.56945  0.57420  0.57894
 *H2              0.45458  0.44974  0.44492  0.44011  0.43532  0.43055  0.42580  0.42106

  * THERMODYNAMIC PROPERTIES FITTED TO 20000.K

 NOTE. WEIGHT FRACTION OF FUEL IN TOTAL FUELS AND OF OXIDANT IN TOTAL OXIDANTS









               THERMODYNAMIC EQUILIBRIUM PROPERTIES AT ASSIGNED

                           TEMPERATURE AND PRESSURE

 CASE =                

             REACTANT                    WT FRACTION      ENERGY      TEMP
                                          (SEE NOTE)     KJ/KG-MOL      K  
 FUEL        H2                           1.0000000         0.000      0.000
 OXIDANT     H2                           1.0000000         0.000      0.000

 O/F=    1.00000  %FUEL= 50.000000  R,EQ.RATIO= 0.000000  PHI,EQ.RATIO=-1.000000

 THERMODYNAMIC PROPERTIES

 P, BAR            12.000   12.000   12.000   12.000   12.000   12.000   12.000   13.200
 T, K             4780.00  4790.00  4800.00  4810.00  4820.00  4830.00  4840.00  4700.00
 RHO, KG/CU M    3.8434-2 3.8241-2 3.8049-2 3.7860-2 3.7672-2 3.7486-2 3.7303-2 4.4586-2
 H, KJ/KG        212785.8 214071.1 215351.5 216626.9 217897.0 219161.6 220420.7 198156.5
 U, KJ/KG        181563.8 182691.1 183813.5 184930.9 186043.2 187150.0 188251.4 168551.1
 G, KJ/KG       -422878.3-424209.5-425543.3-426879.9-428219.0-429560.8-430905.2-409488.5
 S, KJ/(KG)(K)   132.9841 133.2527 133.5198 133.7852 134.0490 134.3111 134.5715 129.2862

 M, (1/n)           1.273    1.269    1.265    1.262    1.258    1.255    1.251    1.320
 (dLV/dLP)t      -1.12150 -1.12110 -1.12067 -1.12023 -1.11977 -1.11929 -1.11879 -1.12463
 (dLV/dLT)p        2.4199   2.4122   2.4044   2.3964   2.3881   2.3797   2.3711   2.4809
 Cp, KJ/(KG)(K)  128.7719 128.2913 127.7923 127.2752 126.7405 126.1885 125.6196 131.1730
 GAMMAs            1.2129   1.2137   1.2144   1.2152   1.2160   1.2168   1.2176   1.2062
 SON VEL,M/SEC     6153.8   6171.3   6188.7   6206.2   6223.6   6241.1   6258.5   5975.7

 TRANSPORT PROPERTIES (GASES ONLY)
   CONDUCTIVITY IN UNITS OF MILLIWATTS/(CM)(K)

 VISC,MILLIPOISE  0.70836  0.70806  0.70774  0.70741  0.70707  0.70672  0.70635  0.71533

  WITH EQUILIBRIUM REACTIONS

 Cp, KJ/(KG)(K)  128.7719 128.2913 127.7923 127.2752 126.7405 126.1885 125.6196 131.1730
 CONDUCTIVITY    151.4251 150.6858 149.9280 149.1522 148.3590 147.5489 146.7225 157.4734
 PRANDTL NUMBER    0.6024   0.6028   0.6033   0.6037   0.6040   0.6044   0.6048   0.5959

  WITH FROZEN REACTIONS

 Cp, KJ/(KG)(K)   20.3894  20.3954  20.4013  20.4070  20.4127  20.4183  20.4237  20.3270
 CONDUCTIVITY     19.8603  19.8593  19.8581  19.8567  19.8551  19.8533  19.8514  19.9931
 PRANDTL NUMBER    0.7272   0.7272   0.7271   0.7270   0.7269   0.7268   0.7267   0.7273

 MASS FRACTIONS

 *H               0.58365  0.58835  0.59302  0.59767  0.60229  0.60690  0.61147  0.52722
 *H2              0.41635  0.41165  0.40698  0.40233  0.39771  0.39310  0.38852  0.47278

  * THERMODYNAMIC PROPERTIES FITTED TO 20000.K

 NOTE. WEIGHT FRACTION OF FUEL IN TOTAL FUELS AND OF OXIDANT IN TOTAL OXIDANTS









               THERMODYNAMIC EQUILIBRIUM PROPERTIES AT ASSIGNED

                           TEMPERATURE AND PRESSURE

 CASE =                

             REACTANT                    WT FRACTION      ENERGY      TEMP
                                          (SEE NOTE)     KJ/KG-MOL      K  
 FUEL        H2                           1.0000000         0.000      0.000
 OXIDANT     H2                           1.0000000         0.000      0.000

 O/F=    1.00000  %FUEL= 50.000000  R,EQ.RATIO= 0.000000  PHI,EQ.RATIO=-1.000000

 THERMODYNAMIC PROPERTIES

 P, BAR            13.200   13.200   13.200   13.200   13.200   13.200   13.200   13.200
 T, K             4710.00  4720.00  4730.00  4740.00  4750.00  4760.00  4770.00  4780.00
 RHO, KG/CU M    4.4352-2 4.4120-2 4.3890-2 4.3662-2 4.3437-2 4.3214-2 4.2992-2 4.2773-2
 H, KJ/KG        199467.1 200775.2 202080.6 203383.1 204682.6 205978.8 207271.4 208560.5
 U, KJ/KG        169705.2 170856.8 172005.5 173151.2 174293.7 175432.8 176568.3 177700.1
 G, KJ/KG       -410782.8-412079.8-413379.6-414682.2-415987.5-417295.5-418606.3-419919.7
 S, KJ/(KG)(K)   129.5647 129.8422 130.1184 130.3935 130.6674 130.9400 131.2113 131.4812

 M, (1/n)           1.316    1.312    1.308    1.304    1.300    1.296    1.292    1.288
 (dLV/dLP)t      -1.12449 -1.12432 -1.12413 -1.12392 -1.12369 -1.12344 -1.12316 -1.12287
 (dLV/dLT)p        2.4761   2.4711   2.4658   2.4603   2.4545   2.4485   2.4423   2.4358
 Cp, KJ/(KG)(K)  130.9366 130.6794 130.4015 130.1033 129.7848 129.4464 129.0883 128.7108
 GAMMAs            1.2069   1.2075   1.2082   1.2089   1.2096   1.2103   1.2110   1.2118
 SON VEL,M/SEC     5993.2   6010.6   6028.0   6045.5   6062.9   6080.3   6097.7   6115.2

 TRANSPORT PROPERTIES (GASES ONLY)
   CONDUCTIVITY IN UNITS OF MILLIWATTS/(CM)(K)

 VISC,MILLIPOISE  0.71526  0.71517  0.71506  0.71493  0.71478  0.71461  0.71442  0.71422

  WITH EQUILIBRIUM REACTIONS

 Cp, KJ/(KG)(K)  130.9366 130.6794 130.4015 130.1033 129.7848 129.4464 129.0883 128.7108
 CONDUCTIVITY    156.9988 156.5011 155.9805 155.4375 154.8725 154.2859 153.6783 153.0499
 PRANDTL NUMBER    0.5965   0.5972   0.5978   0.5984   0.5990   0.5996   0.6001   0.6006

  WITH FROZEN REACTIONS

 Cp, KJ/(KG)(K)   20.3339  20.3406  20.3473  20.3538  20.3603  20.3667  20.3730  20.3792
 CONDUCTIVITY     19.9959  19.9984  20.0005  20.0023  20.0037  20.0047  20.0055  20.0060
 PRANDTL NUMBER    0.7274   0.7274   0.7275   0.7275   0.7275   0.7275   0.7275   0.7275

 MASS FRACTIONS

 *H               0.53203  0.53682  0.54161  0.54638  0.55113  0.55588  0.56060  0.56531
 *H2              0.46797  0.46318  0.45839  0.45362  0.44887  0.44412  0.43940  0.43469

  * THERMODYNAMIC PROPERTIES FITTED TO 20000.K

 NOTE. WEIGHT FRACTION OF FUEL IN TOTAL FUELS AND OF OXIDANT IN TOTAL OXIDANTS









               THERMODYNAMIC EQUILIBRIUM PROPERTIES AT ASSIGNED

                           TEMPERATURE AND PRESSURE

 CASE =                

             REACTANT                    WT FRACTION      ENERGY      TEMP
                                          (SEE NOTE)     KJ/KG-MOL      K  
 FUEL        H2                           1.0000000         0.000      0.000
 OXIDANT     H2                           1.0000000         0.000      0.000

 O/F=    1.00000  %FUEL= 50.000000  R,EQ.RATIO= 0.000000  PHI,EQ.RATIO=-1.000000

 THERMODYNAMIC PROPERTIES

 P, BAR            13.200   13.200   13.200   13.200   13.200   13.200   14.800   14.800
 T, K             4790.00  4800.00  4810.00  4820.00  4830.00  4840.00  4700.00  4710.00
 RHO, KG/CU M    4.2556-2 4.2342-2 4.2129-2 4.1919-2 4.1710-2 4.1504-2 5.0710-2 5.0443-2
 H, KJ/KG        209845.6 211126.7 212403.5 213675.9 214943.7 216206.7 193167.3 194465.6
 U, KJ/KG        178827.9 179951.7 181071.2 182186.3 183296.8 184402.5 163981.8 165125.6
 G, KJ/KG       -421235.9-422554.7-423876.2-425200.4-426527.2-427856.6-406125.4-407401.9
 S, KJ/(KG)(K)   131.7498 132.0170 132.2827 132.5469 132.8097 133.0709 127.5091 127.7850

 M, (1/n)           1.284    1.280    1.276    1.273    1.269    1.265    1.339    1.335
 (dLV/dLP)t      -1.12255 -1.12221 -1.12185 -1.12147 -1.12108 -1.12066 -1.12498 -1.12495
 (dLV/dLT)p        2.4292   2.4223   2.4152   2.4079   2.4004   2.3927   2.4851   2.4816
 Cp, KJ/(KG)(K)  128.3141 127.8986 127.4646 127.0124 126.5423 126.0547 129.8986 129.7583
 GAMMAs            1.2125   1.2132   1.2140   1.2147   1.2155   1.2162   1.2052   1.2058
 SON VEL,M/SEC     6132.6   6150.0   6167.4   6184.7   6202.1   6219.4   5930.8   5948.0

 TRANSPORT PROPERTIES (GASES ONLY)
   CONDUCTIVITY IN UNITS OF MILLIWATTS/(CM)(K)

 VISC,MILLIPOISE  0.71399  0.71375  0.71350  0.71322  0.71293  0.71263  0.72116  0.72120

  WITH EQUILIBRIUM REACTIONS

 Cp, KJ/(KG)(K)  128.3141 127.8986 127.4646 127.0124 126.5423 126.0547 129.8986 129.7583
 CONDUCTIVITY    152.4014 151.7332 151.0458 150.3396 149.6152 148.8731 158.0204 157.6621
 PRANDTL NUMBER    0.6011   0.6016   0.6021   0.6026   0.6030   0.6034   0.5928   0.5936

  WITH FROZEN REACTIONS

 Cp, KJ/(KG)(K)   20.3853  20.3913  20.3972  20.4030  20.4087  20.4144  20.3135  20.3205
 CONDUCTIVITY     20.0062  20.0061  20.0057  20.0052  20.0043  20.0033  20.1484  20.1534
 PRANDTL NUMBER    0.7275   0.7275   0.7275   0.7274   0.7273   0.7273   0.7271   0.7272

 MASS FRACTIONS

 *H               0.57001  0.57468  0.57934  0.58398  0.58859  0.59319  0.50556  0.51032
 *H2              0.42999  0.42532  0.42066  0.41602  0.41141  0.40681  0.49444  0.48968

  * THERMODYNAMIC PROPERTIES FITTED TO 20000.K

 NOTE. WEIGHT FRACTION OF FUEL IN TOTAL FUELS AND OF OXIDANT IN TOTAL OXIDANTS









               THERMODYNAMIC EQUILIBRIUM PROPERTIES AT ASSIGNED

                           TEMPERATURE AND PRESSURE

 CASE =                

             REACTANT                    WT FRACTION      ENERGY      TEMP
                                          (SEE NOTE)     KJ/KG-MOL      K  
 FUEL        H2                           1.0000000         0.000      0.000
 OXIDANT     H2                           1.0000000         0.000      0.000

 O/F=    1.00000  %FUEL= 50.000000  R,EQ.RATIO= 0.000000  PHI,EQ.RATIO=-1.000000

 THERMODYNAMIC PROPERTIES

 P, BAR            14.800   14.800   14.800   14.800   14.800   14.800   14.800   14.800
 T, K             4720.00  4730.00  4740.00  4750.00  4760.00  4770.00  4780.00  4790.00
 RHO, KG/CU M    5.0178-2 4.9916-2 4.9656-2 4.9399-2 4.9144-2 4.8891-2 4.8640-2 4.8392-2
 H, KJ/KG        195762.4 197057.5 198350.7 199641.8 200930.6 202216.8 203500.4 204781.1
 U, KJ/KG        166267.7 167407.8 168545.9 169681.6 170814.8 171945.3 173073.0 174197.7
 G, KJ/KG       -408681.1-409963.1-411247.8-412535.2-413825.4-415118.2-416413.8-417712.0
 S, KJ/(KG)(K)   128.0601 128.3342 128.6073 128.8794 129.1504 129.4203 129.6892 129.9568

 M, (1/n)           1.331    1.326    1.322    1.318    1.314    1.310    1.306    1.302
 (dLV/dLP)t      -1.12489 -1.12480 -1.12470 -1.12457 -1.12442 -1.12425 -1.12406 -1.12385
 (dLV/dLT)p        2.4778   2.4737   2.4694   2.4649   2.4601   2.4550   2.4498   2.4443
 Cp, KJ/(KG)(K)  129.5976 129.4169 129.2161 128.9954 128.7550 128.4950 128.2157 127.9172
 GAMMAs            1.2065   1.2071   1.2078   1.2085   1.2091   1.2098   1.2105   1.2112
 SON VEL,M/SEC     5965.3   5982.6   5999.8   6017.1   6034.4   6051.7   6069.0   6086.3

 TRANSPORT PROPERTIES (GASES ONLY)
   CONDUCTIVITY IN UNITS OF MILLIWATTS/(CM)(K)

 VISC,MILLIPOISE  0.72122  0.72122  0.72120  0.72116  0.72109  0.72100  0.72090  0.72077

  WITH EQUILIBRIUM REACTIONS

 Cp, KJ/(KG)(K)  129.5976 129.4169 129.2161 128.9954 128.7550 128.4950 128.2157 127.9172
 CONDUCTIVITY    157.2803 156.8752 156.4472 155.9965 155.5236 155.0288 154.5124 153.9749
 PRANDTL NUMBER    0.5943   0.5950   0.5957   0.5963   0.5970   0.5976   0.5982   0.5988

  WITH FROZEN REACTIONS

 Cp, KJ/(KG)(K)   20.3274  20.3342  20.3409  20.3475  20.3541  20.3605  20.3669  20.3732
 CONDUCTIVITY     20.1578  20.1619  20.1656  20.1688  20.1717  20.1742  20.1764  20.1782
 PRANDTL NUMBER    0.7273   0.7274   0.7275   0.7275   0.7276   0.7277   0.7277   0.7277

 MASS FRACTIONS

 *H               0.51506  0.51980  0.52453  0.52925  0.53396  0.53866  0.54335  0.54803
 *H2              0.48494  0.48020  0.47547  0.47075  0.46604  0.46134  0.45665  0.45197

  * THERMODYNAMIC PROPERTIES FITTED TO 20000.K

 NOTE. WEIGHT FRACTION OF FUEL IN TOTAL FUELS AND OF OXIDANT IN TOTAL OXIDANTS









               THERMODYNAMIC EQUILIBRIUM PROPERTIES AT ASSIGNED

                           TEMPERATURE AND PRESSURE

 CASE =                

             REACTANT                    WT FRACTION      ENERGY      TEMP
                                          (SEE NOTE)     KJ/KG-MOL      K  
 FUEL        H2                           1.0000000         0.000      0.000
 OXIDANT     H2                           1.0000000         0.000      0.000

 O/F=    1.00000  %FUEL= 50.000000  R,EQ.RATIO= 0.000000  PHI,EQ.RATIO=-1.000000

 THERMODYNAMIC PROPERTIES

 P, BAR            14.800   14.800   14.800   14.800   14.800   16.500   16.500   16.500
 T, K             4800.00  4810.00  4820.00  4830.00  4840.00  4700.00  4710.00  4720.00
 RHO, KG/CU M    4.8146-2 4.7903-2 4.7662-2 4.7423-2 4.7187-2 5.7308-2 5.7007-2 5.6708-2
 H, KJ/KG        206058.7 207333.0 208603.9 209871.1 211134.6 188486.7 189769.7 191052.0
 U, KJ/KG        175319.2 176437.3 177551.9 178662.8 179769.8 159695.0 160825.7 161955.4
 G, KJ/KG       -419012.9-420316.5-421622.7-422931.5-424243.0-402973.4-404233.2-405495.7
 S, KJ/(KG)(K)   130.2232 130.4885 130.7524 131.0150 131.2764 125.8426 126.1153 126.3872

 M, (1/n)           1.298    1.294    1.291    1.287    1.283    1.357    1.353    1.349
 (dLV/dLP)t      -1.12361 -1.12336 -1.12308 -1.12278 -1.12247 -1.12489 -1.12495 -1.12499
 (dLV/dLT)p        2.4386   2.4327   2.4265   2.4202   2.4136   2.4840   2.4816   2.4789
 Cp, KJ/(KG)(K)  127.5998 127.2637 126.9092 126.5364 126.1457 128.3260 128.2706 128.1957
 GAMMAs            1.2119   1.2126   1.2133   1.2140   1.2148   1.2043   1.2049   1.2056
 SON VEL,M/SEC     6103.5   6120.8   6138.1   6155.4   6172.6   5888.5   5905.6   5922.7

 TRANSPORT PROPERTIES (GASES ONLY)
   CONDUCTIVITY IN UNITS OF MILLIWATTS/(CM)(K)

 VISC,MILLIPOISE  0.72063  0.72047  0.72029  0.72009  0.71987  0.72626  0.72641  0.72655

  WITH EQUILIBRIUM REACTIONS

 Cp, KJ/(KG)(K)  127.5998 127.2637 126.9092 126.5364 126.1457 128.3260 128.2706 128.1957
 CONDUCTIVITY    153.4166 152.8380 152.2395 151.6215 150.9844 158.0576 157.8073 157.5335
 PRANDTL NUMBER    0.5994   0.5999   0.6004   0.6010   0.6014   0.5896   0.5905   0.5912

  WITH FROZEN REACTIONS

 Cp, KJ/(KG)(K)   20.3793  20.3854  20.3914  20.3973  20.4031  20.3008  20.3079  20.3149
 CONDUCTIVITY     20.1797  20.1808  20.1817  20.1823  20.1826  20.2888  20.2958  20.3024
 PRANDTL NUMBER    0.7278   0.7278   0.7278   0.7278   0.7277   0.7267   0.7268   0.7270

 MASS FRACTIONS

 *H               0.55269  0.55733  0.56196  0.56658  0.57117  0.48524  0.48993  0.49461
 *H2              0.44731  0.44267  0.43804  0.43342  0.42882  0.51476  0.51007  0.50539

  * THERMODYNAMIC PROPERTIES FITTED TO 20000.K

 NOTE. WEIGHT FRACTION OF FUEL IN TOTAL FUELS AND OF OXIDANT IN TOTAL OXIDANTS









               THERMODYNAMIC EQUILIBRIUM PROPERTIES AT ASSIGNED

                           TEMPERATURE AND PRESSURE

 CASE =                

             REACTANT                    WT FRACTION      ENERGY      TEMP
                                          (SEE NOTE)     KJ/KG-MOL      K  
 FUEL        H2                           1.0000000         0.000      0.000
 OXIDANT     H2                           1.0000000         0.000      0.000

 O/F=    1.00000  %FUEL= 50.000000  R,EQ.RATIO= 0.000000  PHI,EQ.RATIO=-1.000000

 THERMODYNAMIC PROPERTIES

 P, BAR            16.500   16.500   16.500   16.500   16.500   16.500   16.500   16.500
 T, K             4730.00  4740.00  4750.00  4760.00  4770.00  4780.00  4790.00  4800.00
 RHO, KG/CU M    5.6411-2 5.6117-2 5.5825-2 5.5536-2 5.5250-2 5.4966-2 5.4685-2 5.4406-2
 H, KJ/KG        192333.5 193614.0 194893.2 196171.0 197447.2 198721.6 199994.0 201264.2
 U, KJ/KG        163083.9 164211.1 165336.8 166460.8 167583.0 168703.1 169821.1 170936.6
 G, KJ/KG       -406761.0-408028.9-409299.6-410572.9-411848.9-413127.6-414408.9-415692.9
 S, KJ/(KG)(K)   126.6585 126.9289 127.1985 127.4672 127.7350 128.0019 128.2678 128.5327

 M, (1/n)           1.345    1.340    1.336    1.332    1.328    1.324    1.320    1.316
 (dLV/dLP)t      -1.12500 -1.12499 -1.12496 -1.12491 -1.12484 -1.12474 -1.12463 -1.12449
 (dLV/dLT)p        2.4760   2.4729   2.4694   2.4658   2.4619   2.4578   2.4534   2.4488
 Cp, KJ/(KG)(K)  128.1014 127.9878 127.8549 127.7027 127.5315 127.3412 127.1322 126.9044
 GAMMAs            1.2062   1.2068   1.2075   1.2081   1.2088   1.2094   1.2101   1.2108
 SON VEL,M/SEC     5939.8   5956.9   5974.0   5991.1   6008.2   6025.4   6042.5   6059.7

 TRANSPORT PROPERTIES (GASES ONLY)
   CONDUCTIVITY IN UNITS OF MILLIWATTS/(CM)(K)

 VISC,MILLIPOISE  0.72665  0.72674  0.72680  0.72684  0.72686  0.72686  0.72683  0.72679

  WITH EQUILIBRIUM REACTIONS

 Cp, KJ/(KG)(K)  128.1014 127.9878 127.8549 127.7027 127.5315 127.3412 127.1322 126.9044
 CONDUCTIVITY    157.2363 156.9161 156.5730 156.2073 155.8193 155.4093 154.9777 154.5247
 PRANDTL NUMBER    0.5920   0.5928   0.5935   0.5942   0.5949   0.5956   0.5962   0.5969

  WITH FROZEN REACTIONS

 Cp, KJ/(KG)(K)   20.3219  20.3287  20.3355  20.3422  20.3488  20.3553  20.3617  20.3680
 CONDUCTIVITY     20.3086  20.3142  20.3195  20.3243  20.3286  20.3326  20.3362  20.3394
 PRANDTL NUMBER    0.7271   0.7273   0.7274   0.7275   0.7276   0.7277   0.7277   0.7278

 MASS FRACTIONS

 *H               0.49930  0.50397  0.50864  0.51330  0.51796  0.52261  0.52725  0.53188
 *H2              0.50070  0.49603  0.49136  0.48669  0.48204  0.47739  0.47275  0.46812

  * THERMODYNAMIC PROPERTIES FITTED TO 20000.K

 NOTE. WEIGHT FRACTION OF FUEL IN TOTAL FUELS AND OF OXIDANT IN TOTAL OXIDANTS









               THERMODYNAMIC EQUILIBRIUM PROPERTIES AT ASSIGNED

                           TEMPERATURE AND PRESSURE

 CASE =                

             REACTANT                    WT FRACTION      ENERGY      TEMP
                                          (SEE NOTE)     KJ/KG-MOL      K  
 FUEL        H2                           1.0000000         0.000      0.000
 OXIDANT     H2                           1.0000000         0.000      0.000

 O/F=    1.00000  %FUEL= 50.000000  R,EQ.RATIO= 0.000000  PHI,EQ.RATIO=-1.000000

 THERMODYNAMIC PROPERTIES

 P, BAR            16.500   16.500   16.500   16.500   18.000   18.000   18.000   18.000
 T, K             4810.00  4820.00  4830.00  4840.00  4700.00  4710.00  4720.00  4730.00
 RHO, KG/CU M    5.4130-2 5.3856-2 5.3585-2 5.3316-2 6.3200-2 6.2868-2 6.2539-2 6.2212-2
 H, KJ/KG        202532.0 203797.3 205059.8 206319.4 184793.8 186062.2 187330.6 188598.8
 U, KJ/KG        172049.6 173160.0 174267.4 175371.8 156312.9 157430.9 158548.4 159665.5
 G, KJ/KG       -416979.6-418268.9-419560.8-420855.3-400481.8-401728.4-402977.7-404229.7
 S, KJ/(KG)(K)   128.7966 129.0594 129.3210 129.5815 124.5267 124.7963 125.0653 125.3337

 M, (1/n)           1.312    1.308    1.304    1.300    1.372    1.368    1.364    1.359
 (dLV/dLP)t      -1.12433 -1.12416 -1.12396 -1.12374 -1.12453 -1.12466 -1.12477 -1.12486
 (dLV/dLT)p        2.4440   2.4390   2.4337   2.4283   2.4797   2.4782   2.4764   2.4743
 Cp, KJ/(KG)(K)  126.6580 126.3933 126.1105 125.8096 126.8374 126.8451 126.8341 126.8044
 GAMMAs            1.2114   1.2121   1.2128   1.2135   1.2037   1.2043   1.2049   1.2055
 SON VEL,M/SEC     6076.8   6094.0   6111.1   6128.2   5855.2   5872.1   5889.0   5905.9

 TRANSPORT PROPERTIES (GASES ONLY)
   CONDUCTIVITY IN UNITS OF MILLIWATTS/(CM)(K)

 VISC,MILLIPOISE  0.72672  0.72664  0.72653  0.72641  0.73002  0.73027  0.73049  0.73069

  WITH EQUILIBRIUM REACTIONS

 Cp, KJ/(KG)(K)  126.6580 126.3933 126.1105 125.8096 126.8374 126.8451 126.8341 126.8044
 CONDUCTIVITY    154.0506 153.5559 153.0409 152.5059 157.7614 157.5948 157.4049 157.1919
 PRANDTL NUMBER    0.5975   0.5981   0.5987   0.5993   0.5869   0.5878   0.5886   0.5894

  WITH FROZEN REACTIONS

 Cp, KJ/(KG)(K)   20.3742  20.3804  20.3865  20.3924  20.2908  20.2980  20.3051  20.3121
 CONDUCTIVITY     20.3422  20.3447  20.3469  20.3487  20.3954  20.4043  20.4127  20.4206
 PRANDTL NUMBER    0.7279   0.7279   0.7279   0.7280   0.7263   0.7265   0.7266   0.7268

 MASS FRACTIONS

 *H               0.53650  0.54110  0.54570  0.55028  0.46921  0.47383  0.47846  0.48308
 *H2              0.46350  0.45890  0.45430  0.44972  0.53079  0.52617  0.52154  0.51692

  * THERMODYNAMIC PROPERTIES FITTED TO 20000.K

 NOTE. WEIGHT FRACTION OF FUEL IN TOTAL FUELS AND OF OXIDANT IN TOTAL OXIDANTS









               THERMODYNAMIC EQUILIBRIUM PROPERTIES AT ASSIGNED

                           TEMPERATURE AND PRESSURE

 CASE =                

             REACTANT                    WT FRACTION      ENERGY      TEMP
                                          (SEE NOTE)     KJ/KG-MOL      K  
 FUEL        H2                           1.0000000         0.000      0.000
 OXIDANT     H2                           1.0000000         0.000      0.000

 O/F=    1.00000  %FUEL= 50.000000  R,EQ.RATIO= 0.000000  PHI,EQ.RATIO=-1.000000

 THERMODYNAMIC PROPERTIES

 P, BAR            18.000   18.000   18.000   18.000   18.000   18.000   18.000   18.000
 T, K             4740.00  4750.00  4760.00  4770.00  4780.00  4790.00  4800.00  4810.00
 RHO, KG/CU M    6.1888-2 6.1566-2 6.1248-2 6.0932-2 6.0618-2 6.0308-2 6.0000-2 5.9694-2
 H, KJ/KG        189866.6 191133.9 192400.3 193665.9 194930.3 196193.3 197454.9 198714.8
 U, KJ/KG        160781.8 161897.2 163011.5 164124.6 165236.2 166346.3 167454.7 168561.1
 G, KJ/KG       -405484.4-406741.7-408001.8-409264.4-410529.8-411797.7-413068.3-414341.6
 S, KJ/(KG)(K)   125.6015 125.8685 126.1349 126.4005 126.6653 126.9292 127.1923 127.4545

 M, (1/n)           1.355    1.351    1.347    1.343    1.338    1.334    1.330    1.326
 (dLV/dLP)t      -1.12492 -1.12497 -1.12500 -1.12500 -1.12498 -1.12494 -1.12488 -1.12480
 (dLV/dLT)p        2.4721   2.4695   2.4668   2.4638   2.4605   2.4571   2.4534   2.4495
 Cp, KJ/(KG)(K)  126.7560 126.6890 126.6033 126.4991 126.3765 126.2354 126.0759 125.8983
 GAMMAs            1.2061   1.2067   1.2074   1.2080   1.2086   1.2093   1.2099   1.2106
 SON VEL,M/SEC     5922.8   5939.8   5956.8   5973.8   5990.8   6007.8   6024.8   6041.8

 TRANSPORT PROPERTIES (GASES ONLY)
   CONDUCTIVITY IN UNITS OF MILLIWATTS/(CM)(K)

 VISC,MILLIPOISE  0.73086  0.73101  0.73114  0.73124  0.73133  0.73139  0.73142  0.73144

  WITH EQUILIBRIUM REACTIONS

 Cp, KJ/(KG)(K)  126.7560 126.6890 126.6033 126.4991 126.3765 126.2354 126.0759 125.8983
 CONDUCTIVITY    156.9558 156.6970 156.4156 156.1118 155.7860 155.4382 155.0689 154.6782
 PRANDTL NUMBER    0.5902   0.5910   0.5918   0.5925   0.5933   0.5940   0.5947   0.5953

  WITH FROZEN REACTIONS

 Cp, KJ/(KG)(K)   20.3191  20.3260  20.3327  20.3394  20.3461  20.3526  20.3590  20.3654
 CONDUCTIVITY     20.4280  20.4349  20.4414  20.4474  20.4530  20.4582  20.4629  20.4672
 PRANDTL NUMBER    0.7270   0.7271   0.7273   0.7274   0.7275   0.7276   0.7277   0.7278

 MASS FRACTIONS

 *H               0.48770  0.49232  0.49694  0.50155  0.50615  0.51075  0.51534  0.51993
 *H2              0.51230  0.50768  0.50306  0.49845  0.49385  0.48925  0.48466  0.48007

  * THERMODYNAMIC PROPERTIES FITTED TO 20000.K

 NOTE. WEIGHT FRACTION OF FUEL IN TOTAL FUELS AND OF OXIDANT IN TOTAL OXIDANTS









               THERMODYNAMIC EQUILIBRIUM PROPERTIES AT ASSIGNED

                           TEMPERATURE AND PRESSURE

 CASE =                

             REACTANT                    WT FRACTION      ENERGY      TEMP
                                          (SEE NOTE)     KJ/KG-MOL      K  
 FUEL        H2                           1.0000000         0.000      0.000
 OXIDANT     H2                           1.0000000         0.000      0.000

 O/F=    1.00000  %FUEL= 50.000000  R,EQ.RATIO= 0.000000  PHI,EQ.RATIO=-1.000000

 THERMODYNAMIC PROPERTIES

 P, BAR            18.000   18.000   18.000   20.000   20.000   20.000   20.000   20.000
 T, K             4820.00  4830.00  4840.00  4700.00  4710.00  4720.00  4730.00  4740.00
 RHO, KG/CU M    5.9392-2 5.9092-2 5.8794-2 7.1147-2 7.0775-2 7.0405-2 7.0038-2 6.9674-2
 H, KJ/KG        199972.8 201228.8 202482.5 180395.1 181643.4 182892.4 184141.9 185391.7
 U, KJ/KG        169665.5 170767.6 171867.3 152284.4 153384.7 154485.3 155586.0 156686.6
 G, KJ/KG       -415617.4-416895.9-418177.0-397500.6-398731.5-399965.0-401201.2-402440.1
 S, KJ/(KG)(K)   127.7158 127.9761 128.2354 122.9565 123.2218 123.4867 123.7512 124.0151

 M, (1/n)           1.322    1.318    1.314    1.390    1.386    1.382    1.377    1.373
 (dLV/dLP)t      -1.12470 -1.12458 -1.12443 -1.12376 -1.12397 -1.12417 -1.12434 -1.12450
 (dLV/dLT)p        2.4453   2.4409   2.4363   2.4705   2.4700   2.4693   2.4683   2.4670
 Cp, KJ/(KG)(K)  125.7026 125.4889 125.2574 124.7901 124.8678 124.9279 124.9704 124.9952
 GAMMAs            1.2112   1.2119   1.2126   1.2030   1.2036   1.2042   1.2048   1.2054
 SON VEL,M/SEC     6058.8   6075.9   6092.9   5815.4   5832.0   5848.7   5865.4   5882.2

 TRANSPORT PROPERTIES (GASES ONLY)
   CONDUCTIVITY IN UNITS OF MILLIWATTS/(CM)(K)

 VISC,MILLIPOISE  0.73144  0.73141  0.73137  0.73419  0.73455  0.73488  0.73519  0.73547

  WITH EQUILIBRIUM REACTIONS

 Cp, KJ/(KG)(K)  125.7026 125.4889 125.2574 124.7901 124.8678 124.9279 124.9704 124.9952
 CONDUCTIVITY    154.2665 153.8340 153.3812 157.0334 156.9641 156.8719 156.7570 156.6196
 PRANDTL NUMBER    0.5960   0.5966   0.5973   0.5834   0.5843   0.5852   0.5861   0.5870

  WITH FROZEN REACTIONS

 Cp, KJ/(KG)(K)   20.3716  20.3778  20.3839  20.2788  20.2861  20.2934  20.3005  20.3076
 CONDUCTIVITY     20.4712  20.4747  20.4779  20.5172  20.5284  20.5391  20.5493  20.5590
 PRANDTL NUMBER    0.7279   0.7280   0.7280   0.7257   0.7259   0.7261   0.7263   0.7265

 MASS FRACTIONS

 *H               0.52450  0.52907  0.53363  0.45011  0.45465  0.45919  0.46374  0.46828
 *H2              0.47550  0.47093  0.46637  0.54989  0.54535  0.54081  0.53626  0.53172

  * THERMODYNAMIC PROPERTIES FITTED TO 20000.K

 NOTE. WEIGHT FRACTION OF FUEL IN TOTAL FUELS AND OF OXIDANT IN TOTAL OXIDANTS









               THERMODYNAMIC EQUILIBRIUM PROPERTIES AT ASSIGNED

                           TEMPERATURE AND PRESSURE

 CASE =                

             REACTANT                    WT FRACTION      ENERGY      TEMP
                                          (SEE NOTE)     KJ/KG-MOL      K  
 FUEL        H2                           1.0000000         0.000      0.000
 OXIDANT     H2                           1.0000000         0.000      0.000

 O/F=    1.00000  %FUEL= 50.000000  R,EQ.RATIO= 0.000000  PHI,EQ.RATIO=-1.000000

 THERMODYNAMIC PROPERTIES

 P, BAR            20.000   20.000   20.000   20.000   20.000   20.000   20.000   20.000
 T, K             4750.00  4760.00  4770.00  4780.00  4790.00  4800.00  4810.00  4820.00
 RHO, KG/CU M    6.9313-2 6.8954-2 6.8599-2 6.8246-2 6.7897-2 6.7550-2 6.7206-2 6.6865-2
 H, KJ/KG        186641.7 187891.7 189141.5 190390.9 191639.8 192887.9 194135.2 195381.4
 U, KJ/KG        157787.0 158887.1 159986.6 161085.3 162183.2 163280.1 164375.8 165470.2
 G, KJ/KG       -403681.5-404925.6-406172.4-407421.7-408673.7-409928.2-411185.4-412445.1
 S, KJ/(KG)(K)   124.2786 124.5415 124.8037 125.0654 125.3264 125.5867 125.8463 126.1051

 M, (1/n)           1.369    1.365    1.360    1.356    1.352    1.348    1.344    1.340
 (dLV/dLP)t      -1.12463 -1.12474 -1.12484 -1.12491 -1.12496 -1.12499 -1.12500 -1.12499
 (dLV/dLT)p        2.4655   2.4638   2.4619   2.4597   2.4573   2.4546   2.4518   2.4487
 Cp, KJ/(KG)(K)  125.0023 124.9917 124.9634 124.9173 124.8536 124.7722 124.6733 124.5568
 GAMMAs            1.2060   1.2066   1.2072   1.2078   1.2084   1.2090   1.2096   1.2103
 SON VEL,M/SEC     5898.9   5915.7   5932.5   5949.3   5966.1   5983.0   5999.8   6016.7

 TRANSPORT PROPERTIES (GASES ONLY)
   CONDUCTIVITY IN UNITS OF MILLIWATTS/(CM)(K)

 VISC,MILLIPOISE  0.73573  0.73597  0.73618  0.73637  0.73653  0.73668  0.73680  0.73690

  WITH EQUILIBRIUM REACTIONS

 Cp, KJ/(KG)(K)  125.0023 124.9917 124.9634 124.9173 124.8536 124.7722 124.6733 124.5568
 CONDUCTIVITY    156.4596 156.2774 156.0730 155.8466 155.5984 155.3285 155.0373 154.7248
 PRANDTL NUMBER    0.5878   0.5886   0.5894   0.5902   0.5910   0.5918   0.5925   0.5932

  WITH FROZEN REACTIONS

 Cp, KJ/(KG)(K)   20.3146  20.3215  20.3283  20.3350  20.3417  20.3482  20.3547  20.3611
 CONDUCTIVITY     20.5681  20.5767  20.5849  20.5926  20.5998  20.6065  20.6128  20.6187
 PRANDTL NUMBER    0.7267   0.7268   0.7270   0.7272   0.7273   0.7274   0.7276   0.7277

 MASS FRACTIONS

 *H               0.47282  0.47737  0.48191  0.48645  0.49099  0.49552  0.50005  0.50458
 *H2              0.52718  0.52263  0.51809  0.51355  0.50901  0.50448  0.49995  0.49542

  * THERMODYNAMIC PROPERTIES FITTED TO 20000.K

 NOTE. WEIGHT FRACTION OF FUEL IN TOTAL FUELS AND OF OXIDANT IN TOTAL OXIDANTS









               THERMODYNAMIC EQUILIBRIUM PROPERTIES AT ASSIGNED

                           TEMPERATURE AND PRESSURE

 CASE =                

             REACTANT                    WT FRACTION      ENERGY      TEMP
                                          (SEE NOTE)     KJ/KG-MOL      K  
 FUEL        H2                           1.0000000         0.000      0.000
 OXIDANT     H2                           1.0000000         0.000      0.000

 O/F=    1.00000  %FUEL= 50.000000  R,EQ.RATIO= 0.000000  PHI,EQ.RATIO=-1.000000

 THERMODYNAMIC PROPERTIES

 P, BAR            20.000   20.000   22.500   22.500   22.500   22.500   22.500   22.500
 T, K             4830.00  4840.00  4700.00  4710.00  4720.00  4730.00  4740.00  4750.00
 RHO, KG/CU M    6.6526-2 6.6191-2 8.1210-2 8.0787-2 8.0368-2 7.9951-2 7.9537-2 7.9127-2
 H, KJ/KG        196626.3 197869.7 175584.6 176807.6 178032.0 179257.6 180484.3 181711.8
 U, KJ/KG        166563.0 167654.2 147878.7 148956.7 150035.6 151115.3 152195.6 153276.4
 G, KJ/KG       -413707.5-414972.4-394213.6-395427.2-396643.4-397862.3-399083.7-400307.7
 S, KJ/(KG)(K)   126.3631 126.6203 121.2337 121.4936 121.7533 122.0127 122.2717 122.5304

 M, (1/n)           1.336    1.332    1.410    1.406    1.402    1.397    1.393    1.389
 (dLV/dLP)t      -1.12496 -1.12491 -1.12250 -1.12280 -1.12308 -1.12335 -1.12359 -1.12382
 (dLV/dLT)p        2.4453   2.4418   2.4556   2.4561   2.4564   2.4565   2.4564   2.4560
 Cp, KJ/(KG)(K)  124.4228 124.2714 122.2232 122.3708 122.5021 122.6171 122.7157 122.7978
 GAMMAs            1.2109   1.2116   1.2024   1.2029   1.2035   1.2040   1.2046   1.2052
 SON VEL,M/SEC     6033.6   6050.5   5771.8   5788.2   5804.6   5821.0   5837.5   5854.0

 TRANSPORT PROPERTIES (GASES ONLY)
   CONDUCTIVITY IN UNITS OF MILLIWATTS/(CM)(K)

 VISC,MILLIPOISE  0.73697  0.73703  0.73833  0.73881  0.73927  0.73970  0.74011  0.74050

  WITH EQUILIBRIUM REACTIONS

 Cp, KJ/(KG)(K)  124.4228 124.2714 122.2232 122.3708 122.5021 122.6171 122.7157 122.7978
 CONDUCTIVITY    154.3914 154.0373 155.7696 155.8026 155.8136 155.8027 155.7699 155.7153
 PRANDTL NUMBER    0.5939   0.5946   0.5793   0.5803   0.5812   0.5821   0.5831   0.5840

  WITH FROZEN REACTIONS

 Cp, KJ/(KG)(K)   20.3674  20.3737  20.2658  20.2732  20.2805  20.2878  20.2950  20.3021
 CONDUCTIVITY     20.6241  20.6291  20.6432  20.6572  20.6706  20.6835  20.6958  20.7075
 PRANDTL NUMBER    0.7278   0.7279   0.7248   0.7251   0.7253   0.7256   0.7258   0.7260

 MASS FRACTIONS

 *H               0.50910  0.51361  0.42923  0.43366  0.43809  0.44253  0.44698  0.45142
 *H2              0.49090  0.48639  0.57077  0.56634  0.56191  0.55747  0.55302  0.54858

  * THERMODYNAMIC PROPERTIES FITTED TO 20000.K

 NOTE. WEIGHT FRACTION OF FUEL IN TOTAL FUELS AND OF OXIDANT IN TOTAL OXIDANTS









               THERMODYNAMIC EQUILIBRIUM PROPERTIES AT ASSIGNED

                           TEMPERATURE AND PRESSURE

 CASE =                

             REACTANT                    WT FRACTION      ENERGY      TEMP
                                          (SEE NOTE)     KJ/KG-MOL      K  
 FUEL        H2                           1.0000000         0.000      0.000
 OXIDANT     H2                           1.0000000         0.000      0.000

 O/F=    1.00000  %FUEL= 50.000000  R,EQ.RATIO= 0.000000  PHI,EQ.RATIO=-1.000000

 THERMODYNAMIC PROPERTIES

 P, BAR            22.500   22.500   22.500   22.500   22.500   22.500   22.500   22.500
 T, K             4760.00  4770.00  4780.00  4790.00  4800.00  4810.00  4820.00  4830.00
 RHO, KG/CU M    7.8719-2 7.8314-2 7.7913-2 7.7515-2 7.7119-2 7.6727-2 7.6338-2 7.5952-2
 H, KJ/KG        182940.2 184169.1 185398.4 186627.9 187857.5 189087.0 190316.3 191545.1
 U, KJ/KG        154357.5 155438.7 156520.0 157601.1 158681.9 159762.3 160842.1 161921.1
 G, KJ/KG       -401534.3-402763.5-403995.2-405229.6-406466.5-407705.9-408947.9-410192.5
 S, KJ/(KG)(K)   122.7888 123.0467 123.3041 123.5611 123.8175 124.0734 124.3287 124.5834

 M, (1/n)           1.385    1.380    1.376    1.372    1.368    1.364    1.360    1.356
 (dLV/dLP)t      -1.12403 -1.12421 -1.12438 -1.12453 -1.12465 -1.12476 -1.12485 -1.12492
 (dLV/dLT)p        2.4554   2.4546   2.4535   2.4522   2.4507   2.4490   2.4470   2.4448
 Cp, KJ/(KG)(K)  122.8633 122.9122 122.9445 122.9601 122.9591 122.9413 122.9069 122.8558
 GAMMAs            1.2057   1.2063   1.2069   1.2075   1.2081   1.2087   1.2093   1.2099
 SON VEL,M/SEC     5870.5   5887.1   5903.7   5920.3   5936.9   5953.5   5970.2   5986.8

 TRANSPORT PROPERTIES (GASES ONLY)
   CONDUCTIVITY IN UNITS OF MILLIWATTS/(CM)(K)

 VISC,MILLIPOISE  0.74086  0.74119  0.74150  0.74179  0.74205  0.74229  0.74251  0.74271

  WITH EQUILIBRIUM REACTIONS

 Cp, KJ/(KG)(K)  122.8633 122.9122 122.9445 122.9601 122.9591 122.9413 122.9069 122.8558
 CONDUCTIVITY    155.6390 155.5410 155.4215 155.2805 155.1182 154.9347 154.7302 154.5048
 PRANDTL NUMBER    0.5848   0.5857   0.5866   0.5874   0.5882   0.5890   0.5898   0.5906

  WITH FROZEN REACTIONS

 Cp, KJ/(KG)(K)   20.3091  20.3160  20.3229  20.3297  20.3364  20.3430  20.3495  20.3560
 CONDUCTIVITY     20.7187  20.7294  20.7396  20.7493  20.7584  20.7671  20.7753  20.7831
 PRANDTL NUMBER    0.7262   0.7264   0.7266   0.7268   0.7270   0.7271   0.7273   0.7274

 MASS FRACTIONS

 *H               0.45588  0.46033  0.46478  0.46924  0.47369  0.47814  0.48260  0.48704
 *H2              0.54412  0.53967  0.53522  0.53076  0.52631  0.52186  0.51740  0.51296

  * THERMODYNAMIC PROPERTIES FITTED TO 20000.K

 NOTE. WEIGHT FRACTION OF FUEL IN TOTAL FUELS AND OF OXIDANT IN TOTAL OXIDANTS









               THERMODYNAMIC EQUILIBRIUM PROPERTIES AT ASSIGNED

                           TEMPERATURE AND PRESSURE

 CASE =                

             REACTANT                    WT FRACTION      ENERGY      TEMP
                                          (SEE NOTE)     KJ/KG-MOL      K  
 FUEL        H2                           1.0000000         0.000      0.000
 OXIDANT     H2                           1.0000000         0.000      0.000

 O/F=    1.00000  %FUEL= 50.000000  R,EQ.RATIO= 0.000000  PHI,EQ.RATIO=-1.000000

 THERMODYNAMIC PROPERTIES

 P, BAR            22.500   25.000   25.000   25.000   25.000   25.000   25.000   25.000
 T, K             4840.00  4700.00  4710.00  4720.00  4730.00  4740.00  4750.00  4760.00
 RHO, KG/CU M    7.5569-2 9.1399-2 9.0926-2 9.0457-2 8.9991-2 8.9528-2 8.9068-2 8.8612-2
 H, KJ/KG        192773.3 171387.0 172585.2 173785.4 174987.3 176190.9 177395.9 178602.3
 U, KJ/KG        162999.3 144034.4 145090.4 146147.9 147206.7 148266.6 149327.5 150389.3
 G, KJ/KG       -411439.6-391313.2-392511.7-393712.7-394916.3-396122.5-397331.1-398542.4
 S, KJ/(KG)(K)   124.8374 119.7234 119.9781 120.2326 120.4870 120.7412 120.9952 121.2489

 M, (1/n)           1.352    1.429    1.424    1.420    1.416    1.411    1.407    1.403
 (dLV/dLP)t      -1.12496 -1.12104 -1.12142 -1.12177 -1.12211 -1.12243 -1.12273 -1.12302
 (dLV/dLT)p        2.4424   2.4383   2.4397   2.4409   2.4419   2.4427   2.4432   2.4436
 Cp, KJ/(KG)(K)  122.7881 119.7156 119.9181 120.1055 120.2779 120.4350 120.5768 120.7033
 GAMMAs            1.2105   1.2019   1.2024   1.2029   1.2035   1.2040   1.2045   1.2051
 SON VEL,M/SEC     6003.5   5733.6   5749.8   5765.9   5782.1   5798.4   5814.6   5830.9

 TRANSPORT PROPERTIES (GASES ONLY)
   CONDUCTIVITY IN UNITS OF MILLIWATTS/(CM)(K)

 VISC,MILLIPOISE  0.74288  0.74158  0.74217  0.74274  0.74328  0.74380  0.74430  0.74477

  WITH EQUILIBRIUM REACTIONS

 Cp, KJ/(KG)(K)  122.7881 119.7156 119.9181 120.1055 120.2779 120.4350 120.5768 120.7033
 CONDUCTIVITY    154.2588 154.2671 154.3851 154.4822 154.5583 154.6133 154.6474 154.6604
 PRANDTL NUMBER    0.5913   0.5755   0.5765   0.5775   0.5784   0.5794   0.5803   0.5812

  WITH FROZEN REACTIONS

 Cp, KJ/(KG)(K)   20.3623  20.2544  20.2619  20.2693  20.2767  20.2839  20.2911  20.2982
 CONDUCTIVITY     20.7904  20.7464  20.7629  20.7789  20.7942  20.8090  20.8232  20.8368
 PRANDTL NUMBER    0.7276   0.7240   0.7243   0.7245   0.7248   0.7250   0.7253   0.7255

 MASS FRACTIONS

 *H               0.49149  0.41101  0.41533  0.41966  0.42400  0.42834  0.43269  0.43705
 *H2              0.50851  0.58899  0.58467  0.58034  0.57600  0.57166  0.56731  0.56295

  * THERMODYNAMIC PROPERTIES FITTED TO 20000.K

 NOTE. WEIGHT FRACTION OF FUEL IN TOTAL FUELS AND OF OXIDANT IN TOTAL OXIDANTS









               THERMODYNAMIC EQUILIBRIUM PROPERTIES AT ASSIGNED

                           TEMPERATURE AND PRESSURE

 CASE =                

             REACTANT                    WT FRACTION      ENERGY      TEMP
                                          (SEE NOTE)     KJ/KG-MOL      K  
 FUEL        H2                           1.0000000         0.000      0.000
 OXIDANT     H2                           1.0000000         0.000      0.000

 O/F=    1.00000  %FUEL= 50.000000  R,EQ.RATIO= 0.000000  PHI,EQ.RATIO=-1.000000

 THERMODYNAMIC PROPERTIES

 P, BAR            25.000   25.000   25.000   25.000   25.000   25.000   25.000   25.000
 T, K             4770.00  4780.00  4790.00  4800.00  4810.00  4820.00  4830.00  4840.00
 RHO, KG/CU M    8.8158-2 8.7708-2 8.7262-2 8.6818-2 8.6378-2 8.5941-2 8.5507-2 8.5077-2
 H, KJ/KG        179809.9 181018.6 182228.1 183438.3 184649.1 185860.3 187071.7 188283.3
 U, KJ/KG        151451.9 152515.0 153578.6 154642.5 155706.5 156770.6 157834.5 158898.2
 G, KJ/KG       -399756.1-400972.4-402191.2-403412.6-404636.4-405862.8-407091.7-408323.1
 S, KJ/(KG)(K)   121.5023 121.7554 122.0082 122.2606 122.5126 122.7641 123.0152 123.2658

 M, (1/n)           1.399    1.394    1.390    1.386    1.382    1.378    1.374    1.369
 (dLV/dLP)t      -1.12328 -1.12353 -1.12376 -1.12397 -1.12415 -1.12433 -1.12448 -1.12461
 (dLV/dLT)p        2.4437   2.4436   2.4433   2.4427   2.4419   2.4410   2.4398   2.4383
 Cp, KJ/(KG)(K)  120.8142 120.9096 120.9894 121.0535 121.1018 121.1344 121.1512 121.1521
 GAMMAs            1.2056   1.2062   1.2068   1.2073   1.2079   1.2085   1.2091   1.2097
 SON VEL,M/SEC     5847.2   5863.6   5879.9   5896.3   5912.7   5929.2   5945.6   5962.1

 TRANSPORT PROPERTIES (GASES ONLY)
   CONDUCTIVITY IN UNITS OF MILLIWATTS/(CM)(K)

 VISC,MILLIPOISE  0.74521  0.74563  0.74603  0.74640  0.74675  0.74708  0.74738  0.74767

  WITH EQUILIBRIUM REACTIONS

 Cp, KJ/(KG)(K)  120.8142 120.9096 120.9894 121.0535 121.1018 121.1344 121.1512 121.1521
 CONDUCTIVITY    154.6525 154.6237 154.5739 154.5034 154.4122 154.3004 154.1680 154.0153
 PRANDTL NUMBER    0.5822   0.5831   0.5839   0.5848   0.5857   0.5865   0.5873   0.5881

  WITH FROZEN REACTIONS

 Cp, KJ/(KG)(K)   20.3053  20.3123  20.3191  20.3259  20.3327  20.3393  20.3459  20.3524
 CONDUCTIVITY     20.8499  20.8625  20.8745  20.8859  20.8969  20.9074  20.9173  20.9268
 PRANDTL NUMBER    0.7257   0.7260   0.7262   0.7264   0.7266   0.7268   0.7270   0.7271

 MASS FRACTIONS

 *H               0.44141  0.44577  0.45014  0.45451  0.45888  0.46326  0.46763  0.47201
 *H2              0.55859  0.55423  0.54986  0.54549  0.54112  0.53674  0.53237  0.52799

  * THERMODYNAMIC PROPERTIES FITTED TO 20000.K

 NOTE. WEIGHT FRACTION OF FUEL IN TOTAL FUELS AND OF OXIDANT IN TOTAL OXIDANTS









               THERMODYNAMIC EQUILIBRIUM PROPERTIES AT ASSIGNED

                           TEMPERATURE AND PRESSURE

 CASE =                

             REACTANT                    WT FRACTION      ENERGY      TEMP
                                          (SEE NOTE)     KJ/KG-MOL      K  
 FUEL        H2                           1.0000000         0.000      0.000
 OXIDANT     H2                           1.0000000         0.000      0.000

 O/F=    1.00000  %FUEL= 50.000000  R,EQ.RATIO= 0.000000  PHI,EQ.RATIO=-1.000000

 THERMODYNAMIC PROPERTIES

 P, BAR            28.000   28.000   28.000   28.000   28.000   28.000   28.000   28.000
 T, K             4700.00  4710.00  4720.00  4730.00  4740.00  4750.00  4760.00  4770.00
 RHO, KG/CU M    1.0377-1 1.0324-1 1.0271-1 1.0218-1 1.0166-1 1.0115-1 1.0063-1 1.0012-1
 H, KJ/KG        166992.3 168161.9 169334.0 170508.4 171685.1 172863.7 174044.3 175226.7
 U, KJ/KG        140009.5 141040.2 142072.7 143107.1 144143.2 145180.7 146219.7 147260.0
 G, KJ/KG       -388234.4-389417.0-390602.0-391789.6-392979.6-394172.1-395367.1-396564.6
 S, KJ/(KG)(K)   118.1333 118.3819 118.6305 118.8791 119.1276 119.3760 119.6243 119.8724

 M, (1/n)           1.448    1.444    1.440    1.435    1.431    1.427    1.422    1.418
 (dLV/dLP)t      -1.11916 -1.11961 -1.12003 -1.12045 -1.12084 -1.12122 -1.12158 -1.12192
 (dLV/dLT)p        2.4159   2.4182   2.4203   2.4222   2.4239   2.4254   2.4267   2.4277
 Cp, KJ/(KG)(K)  116.8349 117.0884 117.3283 117.5545 117.7668 117.9652 118.1494 118.3194
 GAMMAs            1.2014   1.2019   1.2024   1.2029   1.2034   1.2040   1.2045   1.2050
 SON VEL,M/SEC     5693.6   5709.5   5725.3   5741.2   5757.2   5773.1   5789.2   5805.2

 TRANSPORT PROPERTIES (GASES ONLY)
   CONDUCTIVITY IN UNITS OF MILLIWATTS/(CM)(K)

 VISC,MILLIPOISE  0.74458  0.74529  0.74598  0.74664  0.74728  0.74789  0.74848  0.74904

  WITH EQUILIBRIUM REACTIONS

 Cp, KJ/(KG)(K)  116.8349 117.0884 117.3283 117.5545 117.7668 117.9652 118.1494 118.3194
 CONDUCTIVITY    152.2939 152.4962 152.6787 152.8414 152.9841 153.1068 153.2096 153.2923
 PRANDTL NUMBER    0.5712   0.5722   0.5733   0.5743   0.5753   0.5762   0.5772   0.5782

  WITH FROZEN REACTIONS

 Cp, KJ/(KG)(K)   20.2424  20.2500  20.2575  20.2650  20.2723  20.2796  20.2868  20.2940
 CONDUCTIVITY     20.8470  20.8663  20.8850  20.9031  20.9206  20.9375  20.9538  20.9696
 PRANDTL NUMBER    0.7230   0.7233   0.7236   0.7238   0.7241   0.7244   0.7247   0.7249

 MASS FRACTIONS

 *H               0.39193  0.39613  0.40034  0.40455  0.40878  0.41302  0.41726  0.42151
 *H2              0.60807  0.60387  0.59966  0.59545  0.59122  0.58698  0.58274  0.57849

  * THERMODYNAMIC PROPERTIES FITTED TO 20000.K

 NOTE. WEIGHT FRACTION OF FUEL IN TOTAL FUELS AND OF OXIDANT IN TOTAL OXIDANTS









               THERMODYNAMIC EQUILIBRIUM PROPERTIES AT ASSIGNED

                           TEMPERATURE AND PRESSURE

 CASE =                

             REACTANT                    WT FRACTION      ENERGY      TEMP
                                          (SEE NOTE)     KJ/KG-MOL      K  
 FUEL        H2                           1.0000000         0.000      0.000
 OXIDANT     H2                           1.0000000         0.000      0.000

 O/F=    1.00000  %FUEL= 50.000000  R,EQ.RATIO= 0.000000  PHI,EQ.RATIO=-1.000000

 THERMODYNAMIC PROPERTIES

 P, BAR            28.000   28.000   28.000   28.000   28.000   28.000   28.000   31.000
 T, K             4780.00  4790.00  4800.00  4810.00  4820.00  4830.00  4840.00  4700.00
 RHO, KG/CU M    9.9611-2 9.9107-2 9.8606-2 9.8109-2 9.7615-2 9.7124-2 9.6638-2 1.1628-1
 H, KJ/KG        176410.7 177596.1 178782.9 179970.9 181160.0 182349.9 183540.7 163157.7
 U, KJ/KG        148301.4 149343.8 150387.1 151431.1 152475.8 153521.0 154566.4 136497.7
 G, KJ/KG       -397764.6-398967.0-400171.9-401379.3-402589.2-403801.5-405016.3-385504.5
 S, KJ/(KG)(K)   120.1203 120.3681 120.6156 120.8628 121.1098 121.3564 121.6027 116.7366

 M, (1/n)           1.414    1.410    1.405    1.401    1.397    1.393    1.389    1.466
 (dLV/dLP)t      -1.12225 -1.12255 -1.12284 -1.12311 -1.12337 -1.12360 -1.12382 -1.11722
 (dLV/dLT)p        2.4286   2.4292   2.4296   2.4299   2.4299   2.4297   2.4292   2.3929
 Cp, KJ/(KG)(K)  118.4751 118.6164 118.7431 118.8553 118.9528 119.0356 119.1036 114.1174
 GAMMAs            1.2056   1.2061   1.2066   1.2072   1.2077   1.2083   1.2089   1.2011
 SON VEL,M/SEC     5821.3   5837.4   5853.5   5869.7   5885.9   5902.1   5918.3   5658.6

 TRANSPORT PROPERTIES (GASES ONLY)
   CONDUCTIVITY IN UNITS OF MILLIWATTS/(CM)(K)

 VISC,MILLIPOISE  0.74958  0.75010  0.75059  0.75106  0.75151  0.75193  0.75232  0.74686

  WITH EQUILIBRIUM REACTIONS

 Cp, KJ/(KG)(K)  118.4751 118.6164 118.7431 118.8553 118.9528 119.0356 119.1036 114.1174
 CONDUCTIVITY    153.3550 153.3976 153.4202 153.4229 153.4056 153.3683 153.3113 150.2373
 PRANDTL NUMBER    0.5791   0.5800   0.5809   0.5818   0.5827   0.5836   0.5845   0.5673

  WITH FROZEN REACTIONS

 Cp, KJ/(KG)(K)   20.3011  20.3080  20.3150  20.3218  20.3286  20.3352  20.3418  20.2320
 CONDUCTIVITY     20.9848  20.9994  21.0135  21.0270  21.0400  21.0525  21.0644  20.9279
 PRANDTL NUMBER    0.7252   0.7254   0.7256   0.7259   0.7261   0.7263   0.7265   0.7220

 MASS FRACTIONS

 *H               0.42577  0.43003  0.43430  0.43858  0.44286  0.44714  0.45142  0.37528
 *H2              0.57423  0.56996  0.56570  0.56142  0.55714  0.55286  0.54858  0.62472

  * THERMODYNAMIC PROPERTIES FITTED TO 20000.K

 NOTE. WEIGHT FRACTION OF FUEL IN TOTAL FUELS AND OF OXIDANT IN TOTAL OXIDANTS









               THERMODYNAMIC EQUILIBRIUM PROPERTIES AT ASSIGNED

                           TEMPERATURE AND PRESSURE

 CASE =                

             REACTANT                    WT FRACTION      ENERGY      TEMP
                                          (SEE NOTE)     KJ/KG-MOL      K  
 FUEL        H2                           1.0000000         0.000      0.000
 OXIDANT     H2                           1.0000000         0.000      0.000

 O/F=    1.00000  %FUEL= 50.000000  R,EQ.RATIO= 0.000000  PHI,EQ.RATIO=-1.000000

 THERMODYNAMIC PROPERTIES

 P, BAR            31.000   31.000   31.000   31.000   31.000   31.000   31.000   31.000
 T, K             4710.00  4720.00  4730.00  4740.00  4750.00  4760.00  4770.00  4780.00
 RHO, KG/CU M    1.1569-1 1.1510-1 1.1452-1 1.1394-1 1.1336-1 1.1279-1 1.1222-1 1.1166-1
 H, KJ/KG        164300.4 165445.9 166594.1 167745.0 168898.4 170054.1 171212.0 172372.1
 U, KJ/KG        137504.3 138513.2 139524.3 140537.5 141552.6 142569.5 143588.1 144608.4
 G, KJ/KG       -386673.1-387844.1-389017.5-390193.4-391371.7-392552.4-393735.6-394921.2
 S, KJ/(KG)(K)   116.9795 117.2225 117.4655 117.7085 117.9516 118.1946 118.4377 118.6806

 M, (1/n)           1.461    1.457    1.453    1.449    1.444    1.440    1.436    1.431
 (dLV/dLP)t      -1.11772 -1.11821 -1.11868 -1.11913 -1.11957 -1.11999 -1.12040 -1.12079
 (dLV/dLT)p        2.3959   2.3988   2.4014   2.4038   2.4061   2.4081   2.4099   2.4116
 Cp, KJ/(KG)(K)  114.4100 114.6902 114.9579 115.2130 115.4553 115.6847 115.9011 116.1042
 GAMMAs            1.2015   1.2020   1.2025   1.2030   1.2035   1.2040   1.2045   1.2050
 SON VEL,M/SEC     5674.2   5689.8   5705.4   5721.1   5736.8   5752.5   5768.3   5784.1

 TRANSPORT PROPERTIES (GASES ONLY)
   CONDUCTIVITY IN UNITS OF MILLIWATTS/(CM)(K)

 VISC,MILLIPOISE  0.74768  0.74847  0.74923  0.74997  0.75069  0.75138  0.75205  0.75270

  WITH EQUILIBRIUM REACTIONS

 Cp, KJ/(KG)(K)  114.4100 114.6902 114.9579 115.2130 115.4553 115.6847 115.9011 116.1042
 CONDUCTIVITY    150.5086 150.7612 150.9951 151.2101 151.4062 151.5834 151.7414 151.8804
 PRANDTL NUMBER    0.5684   0.5694   0.5704   0.5714   0.5724   0.5734   0.5744   0.5754

  WITH FROZEN REACTIONS

 Cp, KJ/(KG)(K)   20.2397  20.2473  20.2548  20.2622  20.2696  20.2769  20.2841  20.2912
 CONDUCTIVITY     20.9497  20.9709  20.9915  21.0115  21.0309  21.0497  21.0679  21.0855
 PRANDTL NUMBER    0.7223   0.7226   0.7229   0.7232   0.7235   0.7238   0.7241   0.7243

 MASS FRACTIONS

 *H               0.37936  0.38346  0.38756  0.39168  0.39581  0.39994  0.40409  0.40824
 *H2              0.62064  0.61654  0.61244  0.60832  0.60419  0.60006  0.59591  0.59176

  * THERMODYNAMIC PROPERTIES FITTED TO 20000.K

 NOTE. WEIGHT FRACTION OF FUEL IN TOTAL FUELS AND OF OXIDANT IN TOTAL OXIDANTS









               THERMODYNAMIC EQUILIBRIUM PROPERTIES AT ASSIGNED

                           TEMPERATURE AND PRESSURE

 CASE =                

             REACTANT                    WT FRACTION      ENERGY      TEMP
                                          (SEE NOTE)     KJ/KG-MOL      K  
 FUEL        H2                           1.0000000         0.000      0.000
 OXIDANT     H2                           1.0000000         0.000      0.000

 O/F=    1.00000  %FUEL= 50.000000  R,EQ.RATIO= 0.000000  PHI,EQ.RATIO=-1.000000

 THERMODYNAMIC PROPERTIES

 P, BAR            31.000   31.000   31.000   31.000   31.000   31.000   35.000   35.000
 T, K             4790.00  4800.00  4810.00  4820.00  4830.00  4840.00  4700.00  4710.00
 RHO, KG/CU M    1.1110-1 1.1054-1 1.0998-1 1.0943-1 1.0889-1 1.0834-1 1.3314-1 1.3248-1
 H, KJ/KG        173534.1 174697.9 175863.4 177030.5 178199.0 179368.8 158731.0 159840.2
 U, KJ/KG        145630.0 146653.1 147677.3 148702.6 149728.9 150756.0 132443.4 133420.2
 G, KJ/KG       -396109.2-397299.7-398492.5-399687.8-400885.5-402085.7-382291.8-383444.0
 S, KJ/(KG)(K)   118.9234 119.1662 119.4087 119.6511 119.8933 120.1352 115.1112 115.3470

 M, (1/n)           1.427    1.423    1.419    1.415    1.411    1.406    1.487    1.482
 (dLV/dLP)t      -1.12116 -1.12152 -1.12186 -1.12218 -1.12249 -1.12278 -1.11464 -1.11520
 (dLV/dLT)p        2.4130   2.4143   2.4153   2.4161   2.4168   2.4172   2.3622   2.3660
 Cp, KJ/(KG)(K)  116.2941 116.4706 116.6336 116.7829 116.9186 117.0405 110.7547 111.0860
 GAMMAs            1.2056   1.2061   1.2066   1.2071   1.2077   1.2082   1.2007   1.2012
 SON VEL,M/SEC     5800.0   5815.9   5831.8   5847.7   5863.7   5879.7   5618.1   5633.3

 TRANSPORT PROPERTIES (GASES ONLY)
   CONDUCTIVITY IN UNITS OF MILLIWATTS/(CM)(K)

 VISC,MILLIPOISE  0.75332  0.75392  0.75449  0.75504  0.75557  0.75607  0.74908  0.75001

  WITH EQUILIBRIUM REACTIONS

 Cp, KJ/(KG)(K)  116.2941 116.4706 116.6336 116.7829 116.9186 117.0405 110.7547 111.0860
 CONDUCTIVITY    152.0002 152.1009 152.1824 152.2448 152.2879 152.3119 147.4743 147.8192
 PRANDTL NUMBER    0.5764   0.5773   0.5782   0.5792   0.5801   0.5810   0.5626   0.5636

  WITH FROZEN REACTIONS

 Cp, KJ/(KG)(K)   20.2983  20.3053  20.3122  20.3191  20.3259  20.3326  20.2200  20.2277
 CONDUCTIVITY     21.1026  21.1191  21.1350  21.1503  21.1652  21.1794  21.0125  21.0374
 PRANDTL NUMBER    0.7246   0.7249   0.7251   0.7254   0.7256   0.7258   0.7208   0.7211

 MASS FRACTIONS

 *H               0.41240  0.41657  0.42075  0.42494  0.42912  0.43332  0.35606  0.36000
 *H2              0.58760  0.58343  0.57925  0.57506  0.57088  0.56668  0.64394  0.64000

  * THERMODYNAMIC PROPERTIES FITTED TO 20000.K

 NOTE. WEIGHT FRACTION OF FUEL IN TOTAL FUELS AND OF OXIDANT IN TOTAL OXIDANTS









               THERMODYNAMIC EQUILIBRIUM PROPERTIES AT ASSIGNED

                           TEMPERATURE AND PRESSURE

 CASE =                

             REACTANT                    WT FRACTION      ENERGY      TEMP
                                          (SEE NOTE)     KJ/KG-MOL      K  
 FUEL        H2                           1.0000000         0.000      0.000
 OXIDANT     H2                           1.0000000         0.000      0.000

 O/F=    1.00000  %FUEL= 50.000000  R,EQ.RATIO= 0.000000  PHI,EQ.RATIO=-1.000000

 THERMODYNAMIC PROPERTIES

 P, BAR            35.000   35.000   35.000   35.000   35.000   35.000   35.000   35.000
 T, K             4720.00  4730.00  4740.00  4750.00  4760.00  4770.00  4780.00  4790.00
 RHO, KG/CU M    1.3181-1 1.3115-1 1.3050-1 1.2984-1 1.2920-1 1.2855-1 1.2791-1 1.2727-1
 H, KJ/KG        160952.6 162068.3 163186.9 164308.5 165432.9 166560.0 167689.6 168821.7
 U, KJ/KG        134399.7 135381.7 136366.2 137353.0 138342.1 139333.4 140326.6 141321.8
 G, KJ/KG       -384598.7-385755.7-386915.1-388076.8-389240.9-390407.4-391576.2-392747.4
 S, KJ/(KG)(K)   115.5829 115.8190 116.0553 116.2916 116.5281 116.7646 117.0012 117.2378

 M, (1/n)           1.478    1.474    1.469    1.465    1.461    1.457    1.452    1.448
 (dLV/dLP)t      -1.11575 -1.11628 -1.11679 -1.11730 -1.11779 -1.11826 -1.11872 -1.11916
 (dLV/dLT)p        2.3696   2.3730   2.3763   2.3793   2.3822   2.3849   2.3874   2.3897
 Cp, KJ/(KG)(K)  111.4063 111.7156 112.0136 112.3003 112.5755 112.8390 113.0907 113.3305
 GAMMAs            1.2016   1.2021   1.2026   1.2030   1.2035   1.2040   1.2045   1.2050
 SON VEL,M/SEC     5648.6   5663.9   5679.2   5694.6   5710.0   5725.5   5741.0   5756.5

 TRANSPORT PROPERTIES (GASES ONLY)
   CONDUCTIVITY IN UNITS OF MILLIWATTS/(CM)(K)

 VISC,MILLIPOISE  0.75092  0.75180  0.75266  0.75350  0.75432  0.75511  0.75587  0.75662

  WITH EQUILIBRIUM REACTIONS

 Cp, KJ/(KG)(K)  111.4063 111.7156 112.0136 112.3003 112.5755 112.8390 113.0907 113.3305
 CONDUCTIVITY    148.1470 148.4575 148.7505 149.0259 149.2837 149.5237 149.7459 149.9502
 PRANDTL NUMBER    0.5647   0.5657   0.5668   0.5678   0.5688   0.5698   0.5708   0.5718

  WITH FROZEN REACTIONS

 Cp, KJ/(KG)(K)   20.2354  20.2430  20.2505  20.2579  20.2653  20.2726  20.2799  20.2870
 CONDUCTIVITY     21.0616  21.0851  21.1081  21.1305  21.1523  21.1734  21.1940  21.2140
 PRANDTL NUMBER    0.7215   0.7218   0.7221   0.7224   0.7227   0.7230   0.7233   0.7236

 MASS FRACTIONS

 *H               0.36395  0.36792  0.37189  0.37588  0.37988  0.38390  0.38792  0.39195
 *H2              0.63605  0.63208  0.62811  0.62412  0.62012  0.61610  0.61208  0.60805

  * THERMODYNAMIC PROPERTIES FITTED TO 20000.K

 NOTE. WEIGHT FRACTION OF FUEL IN TOTAL FUELS AND OF OXIDANT IN TOTAL OXIDANTS









               THERMODYNAMIC EQUILIBRIUM PROPERTIES AT ASSIGNED

                           TEMPERATURE AND PRESSURE

 CASE =                

             REACTANT                    WT FRACTION      ENERGY      TEMP
                                          (SEE NOTE)     KJ/KG-MOL      K  
 FUEL        H2                           1.0000000         0.000      0.000
 OXIDANT     H2                           1.0000000         0.000      0.000

 O/F=    1.00000  %FUEL= 50.000000  R,EQ.RATIO= 0.000000  PHI,EQ.RATIO=-1.000000

 THERMODYNAMIC PROPERTIES

 P, BAR            35.000   35.000   35.000   35.000   35.000   39.000   39.000   39.000
 T, K             4800.00  4810.00  4820.00  4830.00  4840.00  4700.00  4710.00  4720.00
 RHO, KG/CU M    1.2664-1 1.2601-1 1.2539-1 1.2476-1 1.2415-1 1.5019-1 1.4945-1 1.4871-1
 H, KJ/KG        169956.2 171092.9 172231.6 173372.4 174514.9 154921.3 155999.9 157082.0
 U, KJ/KG        142318.8 143317.5 144317.8 145319.5 146322.7 128954.4 129903.8 130856.1
 G, KJ/KG       -393921.0-395096.9-396275.2-397455.8-398638.9-379464.5-380602.7-381743.1
 S, KJ/(KG)(K)   117.4744 117.7110 117.9475 118.1839 118.4202 113.6991 113.9284 114.1579

 M, (1/n)           1.444    1.440    1.436    1.432    1.427    1.505    1.501    1.496
 (dLV/dLP)t      -1.11959 -1.12000 -1.12040 -1.12078 -1.12115 -1.11212 -1.11273 -1.11332
 (dLV/dLT)p        2.3918   2.3937   2.3955   2.3971   2.3984   2.3323   2.3367   2.3409
 Cp, KJ/(KG)(K)  113.5582 113.7737 113.9770 114.1678 114.3461 107.6765 108.0354 108.3846
 GAMMAs            1.2055   1.2060   1.2065   1.2070   1.2076   1.2005   1.2009   1.2013
 SON VEL,M/SEC     5772.1   5787.7   5803.3   5819.0   5834.7   5583.2   5598.1   5613.0

 TRANSPORT PROPERTIES (GASES ONLY)
   CONDUCTIVITY IN UNITS OF MILLIWATTS/(CM)(K)

 VISC,MILLIPOISE  0.75734  0.75804  0.75871  0.75936  0.75999  0.75061  0.75164  0.75265

  WITH EQUILIBRIUM REACTIONS

 Cp, KJ/(KG)(K)  113.5582 113.7737 113.9770 114.1678 114.3461 107.6765 108.0354 108.3846
 CONDUCTIVITY    150.1364 150.3047 150.4548 150.5868 150.7006 144.7620 145.1649 145.5519
 PRANDTL NUMBER    0.5728   0.5738   0.5748   0.5757   0.5767   0.5583   0.5594   0.5605

  WITH FROZEN REACTIONS

 Cp, KJ/(KG)(K)   20.2941  20.3012  20.3081  20.3150  20.3218  20.2097  20.2175  20.2252
 CONDUCTIVITY     21.2334  21.2522  21.2705  21.2882  21.3053  21.0771  21.1046  21.1314
 PRANDTL NUMBER    0.7238   0.7241   0.7244   0.7246   0.7249   0.7197   0.7200   0.7204

 MASS FRACTIONS

 *H               0.39599  0.40005  0.40411  0.40818  0.41225  0.33952  0.34333  0.34715
 *H2              0.60401  0.59995  0.59589  0.59182  0.58775  0.66048  0.65667  0.65285

  * THERMODYNAMIC PROPERTIES FITTED TO 20000.K

 NOTE. WEIGHT FRACTION OF FUEL IN TOTAL FUELS AND OF OXIDANT IN TOTAL OXIDANTS









               THERMODYNAMIC EQUILIBRIUM PROPERTIES AT ASSIGNED

                           TEMPERATURE AND PRESSURE

 CASE =                

             REACTANT                    WT FRACTION      ENERGY      TEMP
                                          (SEE NOTE)     KJ/KG-MOL      K  
 FUEL        H2                           1.0000000         0.000      0.000
 OXIDANT     H2                           1.0000000         0.000      0.000

 O/F=    1.00000  %FUEL= 50.000000  R,EQ.RATIO= 0.000000  PHI,EQ.RATIO=-1.000000

 THERMODYNAMIC PROPERTIES

 P, BAR            39.000   39.000   39.000   39.000   39.000   39.000   39.000   39.000
 T, K             4730.00  4740.00  4750.00  4760.00  4770.00  4780.00  4790.00  4800.00
 RHO, KG/CU M    1.4797-1 1.4724-1 1.4651-1 1.4579-1 1.4507-1 1.4435-1 1.4364-1 1.4294-1
 H, KJ/KG        158167.5 159256.4 160348.6 161443.8 162542.2 163643.4 164747.5 165854.3
 U, KJ/KG        131811.3 132769.3 133729.9 134693.0 135658.6 136626.6 137596.9 138569.3
 G, KJ/KG       -382885.8-384030.9-385178.2-386327.8-387479.7-388634.0-389790.5-390949.4
 S, KJ/(KG)(K)   114.3876 114.6176 114.8477 115.0781 115.3086 115.5392 115.7699 116.0008

 M, (1/n)           1.492    1.488    1.484    1.479    1.475    1.471    1.467    1.463
 (dLV/dLP)t      -1.11390 -1.11446 -1.11502 -1.11556 -1.11608 -1.11660 -1.11710 -1.11758
 (dLV/dLT)p        2.3449   2.3488   2.3525   2.3560   2.3594   2.3626   2.3656   2.3684
 Cp, KJ/(KG)(K)  108.7240 109.0534 109.3727 109.6816 109.9801 110.2680 110.5452 110.8115
 GAMMAs            1.2018   1.2022   1.2027   1.2032   1.2036   1.2041   1.2046   1.2051
 SON VEL,M/SEC     5628.0   5643.1   5658.1   5673.2   5688.4   5703.6   5718.8   5734.1

 TRANSPORT PROPERTIES (GASES ONLY)
   CONDUCTIVITY IN UNITS OF MILLIWATTS/(CM)(K)

 VISC,MILLIPOISE  0.75363  0.75460  0.75554  0.75646  0.75735  0.75823  0.75908  0.75990

  WITH EQUILIBRIUM REACTIONS

 Cp, KJ/(KG)(K)  108.7240 109.0534 109.3727 109.6816 109.9801 110.2680 110.5452 110.8115
 CONDUCTIVITY    145.9230 146.2779 146.6165 146.9386 147.2443 147.5333 147.8055 148.0609
 PRANDTL NUMBER    0.5615   0.5626   0.5636   0.5647   0.5657   0.5667   0.5677   0.5687

  WITH FROZEN REACTIONS

 Cp, KJ/(KG)(K)   20.2328  20.2404  20.2479  20.2553  20.2627  20.2700  20.2773  20.2844
 CONDUCTIVITY     21.1577  21.1833  21.2083  21.2328  21.2566  21.2798  21.3025  21.3245
 PRANDTL NUMBER    0.7207   0.7210   0.7213   0.7216   0.7219   0.7222   0.7225   0.7228

 MASS FRACTIONS

 *H               0.35098  0.35483  0.35869  0.36257  0.36646  0.37036  0.37427  0.37819
 *H2              0.64902  0.64517  0.64131  0.63743  0.63354  0.62964  0.62573  0.62181

  * THERMODYNAMIC PROPERTIES FITTED TO 20000.K

 NOTE. WEIGHT FRACTION OF FUEL IN TOTAL FUELS AND OF OXIDANT IN TOTAL OXIDANTS









               THERMODYNAMIC EQUILIBRIUM PROPERTIES AT ASSIGNED

                           TEMPERATURE AND PRESSURE

 CASE =                

             REACTANT                    WT FRACTION      ENERGY      TEMP
                                          (SEE NOTE)     KJ/KG-MOL      K  
 FUEL        H2                           1.0000000         0.000      0.000
 OXIDANT     H2                           1.0000000         0.000      0.000

 O/F=    1.00000  %FUEL= 50.000000  R,EQ.RATIO= 0.000000  PHI,EQ.RATIO=-1.000000

 THERMODYNAMIC PROPERTIES

 P, BAR            39.000   39.000   39.000   39.000   44.000   44.000   44.000   44.000
 T, K             4810.00  4820.00  4830.00  4840.00  4700.00  4710.00  4720.00  4730.00
 RHO, KG/CU M    1.4223-1 1.4153-1 1.4084-1 1.4015-1 1.7172-1 1.7089-1 1.7005-1 1.6922-1
 H, KJ/KG        166963.7 168075.6 169189.9 170306.4 150830.8 151874.6 152922.2 153973.5
 U, KJ/KG        139543.8 140520.3 141498.6 142478.7 125208.1 126126.4 127047.9 127972.5
 G, KJ/KG       -392110.5-393274.0-394439.8-395607.9-376353.1-377475.9-378600.9-379728.1
 S, KJ/(KG)(K)   116.2316 116.4626 116.6935 116.9244 112.1668 112.3886 112.6108 112.8333

 M, (1/n)           1.459    1.454    1.450    1.446    1.525    1.521    1.517    1.513
 (dLV/dLP)t      -1.11805 -1.11851 -1.11895 -1.11938 -1.10912 -1.10976 -1.11040 -1.11102
 (dLV/dLT)p        2.3711   2.3736   2.3759   2.3780   2.2966   2.3015   2.3063   2.3109
 Cp, KJ/(KG)(K)  111.0668 111.3109 111.5438 111.7652 104.1908 104.5736 104.9481 105.3140
 GAMMAs            1.2055   1.2060   1.2065   1.2070   1.2003   1.2007   1.2011   1.2015
 SON VEL,M/SEC     5749.4   5764.8   5780.2   5795.6   5545.6   5560.2   5574.7   5589.4

 TRANSPORT PROPERTIES (GASES ONLY)
   CONDUCTIVITY IN UNITS OF MILLIWATTS/(CM)(K)

 VISC,MILLIPOISE  0.76071  0.76149  0.76225  0.76299  0.75183  0.75297  0.75409  0.75518

  WITH EQUILIBRIUM REACTIONS

 Cp, KJ/(KG)(K)  111.0668 111.3109 111.5438 111.7652 104.1908 104.5736 104.9481 105.3140
 CONDUCTIVITY    148.2994 148.5208 148.7251 148.9123 141.5044 141.9635 142.4081 142.8382
 PRANDTL NUMBER    0.5697   0.5707   0.5717   0.5727   0.5536   0.5547   0.5557   0.5568

  WITH FROZEN REACTIONS

 Cp, KJ/(KG)(K)   20.2916  20.2986  20.3056  20.3125  20.1986  20.2064  20.2142  20.2219
 CONDUCTIVITY     21.3460  21.3668  21.3871  21.4069  21.1371  21.1675  21.1973  21.2264
 PRANDTL NUMBER    0.7231   0.7234   0.7237   0.7240   0.7185   0.7188   0.7191   0.7194

 MASS FRACTIONS

 *H               0.38213  0.38607  0.39003  0.39399  0.32177  0.32542  0.32909  0.33278
 *H2              0.61787  0.61393  0.60997  0.60601  0.67823  0.67458  0.67091  0.66722

  * THERMODYNAMIC PROPERTIES FITTED TO 20000.K

 NOTE. WEIGHT FRACTION OF FUEL IN TOTAL FUELS AND OF OXIDANT IN TOTAL OXIDANTS









               THERMODYNAMIC EQUILIBRIUM PROPERTIES AT ASSIGNED

                           TEMPERATURE AND PRESSURE

 CASE =                

             REACTANT                    WT FRACTION      ENERGY      TEMP
                                          (SEE NOTE)     KJ/KG-MOL      K  
 FUEL        H2                           1.0000000         0.000      0.000
 OXIDANT     H2                           1.0000000         0.000      0.000

 O/F=    1.00000  %FUEL= 50.000000  R,EQ.RATIO= 0.000000  PHI,EQ.RATIO=-1.000000

 THERMODYNAMIC PROPERTIES

 P, BAR            44.000   44.000   44.000   44.000   44.000   44.000   44.000   44.000
 T, K             4740.00  4750.00  4760.00  4770.00  4780.00  4790.00  4800.00  4810.00
 RHO, KG/CU M    1.6840-1 1.6758-1 1.6676-1 1.6595-1 1.6514-1 1.6434-1 1.6354-1 1.6275-1
 H, KJ/KG        155028.5 156086.9 157148.8 158214.1 159282.6 160354.2 161429.0 162506.7
 U, KJ/KG        128900.1 129830.6 130764.0 131700.1 132639.0 133580.4 134524.3 135470.6
 G, KJ/KG       -380857.5-381989.2-383123.1-384259.3-385397.6-386538.3-387681.1-388826.2
 S, KJ/(KG)(K)   113.0561 113.2792 113.5025 113.7261 113.9498 114.1738 114.3979 114.6222

 M, (1/n)           1.508    1.504    1.500    1.496    1.492    1.488    1.483    1.479
 (dLV/dLP)t      -1.11163 -1.11223 -1.11282 -1.11340 -1.11396 -1.11452 -1.11506 -1.11559
 (dLV/dLT)p        2.3154   2.3197   2.3239   2.3279   2.3318   2.3355   2.3390   2.3424
 Cp, KJ/(KG)(K)  105.6713 106.0196 106.3590 106.6892 107.0100 107.3215 107.6233 107.9153
 GAMMAs            1.2020   1.2024   1.2028   1.2033   1.2037   1.2042   1.2047   1.2051
 SON VEL,M/SEC     5604.1   5618.8   5633.5   5648.3   5663.2   5678.1   5693.0   5708.0

 TRANSPORT PROPERTIES (GASES ONLY)
   CONDUCTIVITY IN UNITS OF MILLIWATTS/(CM)(K)

 VISC,MILLIPOISE  0.75625  0.75731  0.75834  0.75934  0.76033  0.76129  0.76223  0.76315

  WITH EQUILIBRIUM REACTIONS

 Cp, KJ/(KG)(K)  105.6713 106.0196 106.3590 106.6892 107.0100 107.3215 107.6233 107.9153
 CONDUCTIVITY    143.2537 143.6543 144.0399 144.4103 144.7655 145.1053 145.4296 145.7383
 PRANDTL NUMBER    0.5579   0.5589   0.5600   0.5610   0.5620   0.5631   0.5641   0.5651

  WITH FROZEN REACTIONS

 Cp, KJ/(KG)(K)   20.2295  20.2371  20.2446  20.2520  20.2594  20.2668  20.2740  20.2812
 CONDUCTIVITY     21.2550  21.2829  21.3103  21.3370  21.3632  21.3887  21.4137  21.4381
 PRANDTL NUMBER    0.7198   0.7201   0.7204   0.7207   0.7210   0.7214   0.7217   0.7220

 MASS FRACTIONS

 *H               0.33648  0.34019  0.34392  0.34767  0.35143  0.35520  0.35898  0.36278
 *H2              0.66352  0.65981  0.65607  0.65233  0.64857  0.64480  0.64101  0.63722

  * THERMODYNAMIC PROPERTIES FITTED TO 20000.K

 NOTE. WEIGHT FRACTION OF FUEL IN TOTAL FUELS AND OF OXIDANT IN TOTAL OXIDANTS









               THERMODYNAMIC EQUILIBRIUM PROPERTIES AT ASSIGNED

                           TEMPERATURE AND PRESSURE

 CASE =                

             REACTANT                    WT FRACTION      ENERGY      TEMP
                                          (SEE NOTE)     KJ/KG-MOL      K  
 FUEL        H2                           1.0000000         0.000      0.000
 OXIDANT     H2                           1.0000000         0.000      0.000

 O/F=    1.00000  %FUEL= 50.000000  R,EQ.RATIO= 0.000000  PHI,EQ.RATIO=-1.000000

 THERMODYNAMIC PROPERTIES

 P, BAR            44.000   44.000   44.000   49.000   49.000   49.000   49.000   49.000
 T, K             4820.00  4830.00  4840.00  4700.00  4710.00  4720.00  4730.00  4740.00
 RHO, KG/CU M    1.6196-1 1.6117-1 1.6039-1 1.9347-1 1.9254-1 1.9161-1 1.9069-1 1.8978-1
 H, KJ/KG        163587.2 164670.6 165756.6 147321.5 148334.1 149350.6 150371.0 151395.2
 U, KJ/KG        136419.2 137370.1 138323.1 121994.1 122884.5 123778.2 124675.1 125575.2
 G, KJ/KG       -389973.6-391123.2-392275.0-373611.3-374720.7-375832.3-376946.1-378062.0
 S, KJ/(KG)(K)   114.8466 115.0712 115.2958 110.8368 111.0520 111.2676 111.4835 111.6998

 M, (1/n)           1.475    1.471    1.467    1.543    1.539    1.535    1.530    1.526
 (dLV/dLP)t      -1.11610 -1.11660 -1.11709 -1.10628 -1.10696 -1.10763 -1.10828 -1.10893
 (dLV/dLT)p        2.3456   2.3487   2.3516   2.2629   2.2683   2.2735   2.2786   2.2835
 Cp, KJ/(KG)(K)  108.1975 108.4697 108.7317 101.0588 101.4575 101.8488 102.2327 102.6090
 GAMMAs            1.2056   1.2061   1.2065   1.2002   1.2006   1.2010   1.2014   1.2018
 SON VEL,M/SEC     5723.0   5738.1   5753.2   5513.3   5527.5   5541.8   5556.1   5570.5

 TRANSPORT PROPERTIES (GASES ONLY)
   CONDUCTIVITY IN UNITS OF MILLIWATTS/(CM)(K)

 VISC,MILLIPOISE  0.76405  0.76493  0.76578  0.75253  0.75376  0.75496  0.75615  0.75731

  WITH EQUILIBRIUM REACTIONS

 Cp, KJ/(KG)(K)  108.1975 108.4697 108.7317 101.0588 101.4575 101.8488 102.2327 102.6090
 CONDUCTIVITY    146.0312 146.3083 146.5694 138.4241 138.9260 139.4148 139.8903 140.3525
 PRANDTL NUMBER    0.5661   0.5671   0.5681   0.5494   0.5505   0.5515   0.5526   0.5537

  WITH FROZEN REACTIONS

 Cp, KJ/(KG)(K)   20.2883  20.2954  20.3024  20.1891  20.1969  20.2047  20.2125  20.2202
 CONDUCTIVITY     21.4619  21.4852  21.5078  21.1802  21.2131  21.2454  21.2770  21.3081
 PRANDTL NUMBER    0.7223   0.7226   0.7229   0.7173   0.7177   0.7180   0.7183   0.7186

 MASS FRACTIONS

 *H               0.36659  0.37041  0.37424  0.30653  0.31005  0.31359  0.31714  0.32071
 *H2              0.63341  0.62959  0.62576  0.69347  0.68995  0.68641  0.68286  0.67929

  * THERMODYNAMIC PROPERTIES FITTED TO 20000.K

 NOTE. WEIGHT FRACTION OF FUEL IN TOTAL FUELS AND OF OXIDANT IN TOTAL OXIDANTS









               THERMODYNAMIC EQUILIBRIUM PROPERTIES AT ASSIGNED

                           TEMPERATURE AND PRESSURE

 CASE =                

             REACTANT                    WT FRACTION      ENERGY      TEMP
                                          (SEE NOTE)     KJ/KG-MOL      K  
 FUEL        H2                           1.0000000         0.000      0.000
 OXIDANT     H2                           1.0000000         0.000      0.000

 O/F=    1.00000  %FUEL= 50.000000  R,EQ.RATIO= 0.000000  PHI,EQ.RATIO=-1.000000

 THERMODYNAMIC PROPERTIES

 P, BAR            49.000   49.000   49.000   49.000   49.000   49.000   49.000   49.000
 T, K             4750.00  4760.00  4770.00  4780.00  4790.00  4800.00  4810.00  4820.00
 RHO, KG/CU M    1.8886-1 1.8796-1 1.8705-1 1.8615-1 1.8526-1 1.8437-1 1.8348-1 1.8260-1
 H, KJ/KG        152423.2 153454.8 154489.9 155528.5 156570.6 157615.9 158664.5 159716.2
 U, KJ/KG        126478.5 127384.7 128294.0 129206.2 130121.2 131038.9 131959.2 132882.2
 G, KJ/KG       -379180.1-380300.3-381422.8-382547.4-383674.1-384803.1-385934.2-387067.5
 S, KJ/(KG)(K)   111.9165 112.1334 112.3507 112.5682 112.7860 113.0040 113.2222 113.4406

 M, (1/n)           1.522    1.518    1.514    1.510    1.506    1.502    1.498    1.493
 (dLV/dLP)t      -1.10956 -1.11019 -1.11080 -1.11141 -1.11200 -1.11259 -1.11316 -1.11372
 (dLV/dLT)p        2.2884   2.2930   2.2976   2.3019   2.3062   2.3103   2.3142   2.3180
 Cp, KJ/(KG)(K)  102.9774 103.3379 103.6904 104.0346 104.3704 104.6977 105.0163 105.3262
 GAMMAs            1.2022   1.2026   1.2030   1.2035   1.2039   1.2044   1.2048   1.2052
 SON VEL,M/SEC     5584.9   5599.3   5613.8   5628.4   5642.9   5657.6   5672.3   5687.0

 TRANSPORT PROPERTIES (GASES ONLY)
   CONDUCTIVITY IN UNITS OF MILLIWATTS/(CM)(K)

 VISC,MILLIPOISE  0.75845  0.75958  0.76068  0.76176  0.76282  0.76386  0.76488  0.76588

  WITH EQUILIBRIUM REACTIONS

 Cp, KJ/(KG)(K)  102.9774 103.3379 103.6904 104.0346 104.3704 104.6977 105.0163 105.3262
 CONDUCTIVITY    140.8011 141.2359 141.6569 142.0639 142.4567 142.8352 143.1993 143.5488
 PRANDTL NUMBER    0.5547   0.5558   0.5568   0.5578   0.5589   0.5599   0.5609   0.5619

  WITH FROZEN REACTIONS

 Cp, KJ/(KG)(K)   20.2278  20.2354  20.2429  20.2503  20.2577  20.2650  20.2723  20.2794
 CONDUCTIVITY     21.3386  21.3685  21.3979  21.4266  21.4548  21.4823  21.5093  21.5358
 PRANDTL NUMBER    0.7190   0.7193   0.7196   0.7199   0.7203   0.7206   0.7209   0.7212

 MASS FRACTIONS

 *H               0.32429  0.32789  0.33151  0.33513  0.33878  0.34244  0.34611  0.34979
 *H2              0.67571  0.67211  0.66849  0.66487  0.66122  0.65756  0.65389  0.65021

  * THERMODYNAMIC PROPERTIES FITTED TO 20000.K

 NOTE. WEIGHT FRACTION OF FUEL IN TOTAL FUELS AND OF OXIDANT IN TOTAL OXIDANTS









               THERMODYNAMIC EQUILIBRIUM PROPERTIES AT ASSIGNED

                           TEMPERATURE AND PRESSURE

 CASE =                

             REACTANT                    WT FRACTION      ENERGY      TEMP
                                          (SEE NOTE)     KJ/KG-MOL      K  
 FUEL        H2                           1.0000000         0.000      0.000
 OXIDANT     H2                           1.0000000         0.000      0.000

 O/F=    1.00000  %FUEL= 50.000000  R,EQ.RATIO= 0.000000  PHI,EQ.RATIO=-1.000000

 THERMODYNAMIC PROPERTIES

 P, BAR            49.000   49.000   54.000   54.000   54.000   54.000   54.000   54.000
 T, K             4830.00  4840.00  4700.00  4710.00  4720.00  4730.00  4740.00  4750.00
 RHO, KG/CU M    1.8173-1 1.8086-1 2.1539-1 2.1437-1 2.1336-1 2.1235-1 2.1134-1 2.1034-1
 H, KJ/KG        160771.0 161828.7 144267.7 145252.1 146240.5 147232.9 148229.3 149229.5
 U, KJ/KG        133807.6 134735.5 119197.4 120062.4 120930.9 121802.7 122677.9 123556.3
 G, KJ/KG       -388203.0-389340.7-371163.0-372260.7-373360.5-374462.4-375566.4-376672.5
 S, KJ/(KG)(K)   113.6592 113.8780 109.6661 109.8753 110.0850 110.2950 110.5054 110.7162

 M, (1/n)           1.489    1.485    1.559    1.555    1.551    1.546    1.542    1.538
 (dLV/dLP)t      -1.11427 -1.11480 -1.10363 -1.10433 -1.10502 -1.10570 -1.10637 -1.10703
 (dLV/dLT)p        2.3217   2.3252   2.2314   2.2371   2.2427   2.2481   2.2534   2.2586
 Cp, KJ/(KG)(K)  105.6271 105.9189  98.2319  98.6409  99.0434  99.4393  99.8285 100.2108
 GAMMAs            1.2057   1.2062   1.2001   1.2005   1.2009   1.2013   1.2017   1.2021
 SON VEL,M/SEC     5701.7   5716.5   5485.2   5499.1   5513.1   5527.1   5541.1   5555.3

 TRANSPORT PROPERTIES (GASES ONLY)
   CONDUCTIVITY IN UNITS OF MILLIWATTS/(CM)(K)

 VISC,MILLIPOISE  0.76685  0.76781  0.75286  0.75416  0.75544  0.75670  0.75794  0.75916

  WITH EQUILIBRIUM REACTIONS

 Cp, KJ/(KG)(K)  105.6270 105.9189  98.2319  98.6409  99.0434  99.4393  99.8285 100.2108
 CONDUCTIVITY    143.8836 144.2037 135.5285 136.0633 136.5863 137.0972 137.5958 138.0820
 PRANDTL NUMBER    0.5630   0.5640   0.5457   0.5467   0.5478   0.5488   0.5499   0.5510

  WITH FROZEN REACTIONS

 Cp, KJ/(KG)(K)   20.2866  20.2936  20.1808  20.1887  20.1965  20.2043  20.2120  20.2197
 CONDUCTIVITY     21.5616  21.5868  21.2109  21.2459  21.2804  21.3143  21.3476  21.3803
 PRANDTL NUMBER    0.7215   0.7218   0.7163   0.7166   0.7170   0.7173   0.7176   0.7180

 MASS FRACTIONS

 *H               0.35349  0.35720  0.29327  0.29667  0.30008  0.30352  0.30696  0.31043
 *H2              0.64651  0.64280  0.70673  0.70333  0.69992  0.69648  0.69304  0.68957

  * THERMODYNAMIC PROPERTIES FITTED TO 20000.K

 NOTE. WEIGHT FRACTION OF FUEL IN TOTAL FUELS AND OF OXIDANT IN TOTAL OXIDANTS









               THERMODYNAMIC EQUILIBRIUM PROPERTIES AT ASSIGNED

                           TEMPERATURE AND PRESSURE

 CASE =                

             REACTANT                    WT FRACTION      ENERGY      TEMP
                                          (SEE NOTE)     KJ/KG-MOL      K  
 FUEL        H2                           1.0000000         0.000      0.000
 OXIDANT     H2                           1.0000000         0.000      0.000

 O/F=    1.00000  %FUEL= 50.000000  R,EQ.RATIO= 0.000000  PHI,EQ.RATIO=-1.000000

 THERMODYNAMIC PROPERTIES

 P, BAR            54.000   54.000   54.000   54.000   54.000   54.000   54.000   54.000
 T, K             4760.00  4770.00  4780.00  4790.00  4800.00  4810.00  4820.00  4830.00
 RHO, KG/CU M    2.0934-1 2.0835-1 2.0736-1 2.0637-1 2.0539-1 2.0442-1 2.0345-1 2.0249-1
 H, KJ/KG        150233.5 151241.2 152252.5 153267.4 154285.9 155307.7 156332.9 157361.3
 U, KJ/KG        124438.0 125322.7 126210.5 127101.3 127994.9 128891.5 129790.8 130692.7
 G, KJ/KG       -377780.7-378891.0-380003.5-381118.0-382234.7-383353.5-384474.5-385597.6
 S, KJ/(KG)(K)   110.9273 111.1388 111.3506 111.5627 111.7751 111.9878 112.2007 112.4138

 M, (1/n)           1.534    1.530    1.526    1.522    1.518    1.514    1.510    1.506
 (dLV/dLP)t      -1.10769 -1.10833 -1.10896 -1.10959 -1.11021 -1.11081 -1.11141 -1.11199
 (dLV/dLT)p        2.2636   2.2686   2.2734   2.2780   2.2826   2.2870   2.2912   2.2953
 Cp, KJ/(KG)(K)  100.5860 100.9541 101.3149 101.6682 102.0139 102.3518 102.6819 103.0039
 GAMMAs            1.2025   1.2029   1.2033   1.2037   1.2041   1.2046   1.2050   1.2054
 SON VEL,M/SEC     5569.4   5583.6   5597.9   5612.2   5626.5   5640.9   5655.4   5669.9

 TRANSPORT PROPERTIES (GASES ONLY)
   CONDUCTIVITY IN UNITS OF MILLIWATTS/(CM)(K)

 VISC,MILLIPOISE  0.76037  0.76155  0.76271  0.76385  0.76498  0.76608  0.76716  0.76822

  WITH EQUILIBRIUM REACTIONS

 Cp, KJ/(KG)(K)  100.5860 100.9541 101.3149 101.6682 102.0139 102.3518 102.6819 103.0039
 CONDUCTIVITY    138.5557 139.0165 139.4645 139.8994 140.3211 140.7295 141.1243 141.5056
 PRANDTL NUMBER    0.5520   0.5530   0.5541   0.5551   0.5561   0.5572   0.5582   0.5592

  WITH FROZEN REACTIONS

 Cp, KJ/(KG)(K)   20.2273  20.2349  20.2424  20.2498  20.2571  20.2645  20.2717  20.2789
 CONDUCTIVITY     21.4125  21.4441  21.4751  21.5056  21.5354  21.5647  21.5935  21.6216
 PRANDTL NUMBER    0.7183   0.7186   0.7189   0.7193   0.7196   0.7199   0.7202   0.7205

 MASS FRACTIONS

 *H               0.31391  0.31740  0.32092  0.32444  0.32798  0.33154  0.33511  0.33869
 *H2              0.68609  0.68260  0.67908  0.67556  0.67202  0.66846  0.66489  0.66131

  * THERMODYNAMIC PROPERTIES FITTED TO 20000.K

 NOTE. WEIGHT FRACTION OF FUEL IN TOTAL FUELS AND OF OXIDANT IN TOTAL OXIDANTS









               THERMODYNAMIC EQUILIBRIUM PROPERTIES AT ASSIGNED

                           TEMPERATURE AND PRESSURE

 CASE =                

             REACTANT                    WT FRACTION      ENERGY      TEMP
                                          (SEE NOTE)     KJ/KG-MOL      K  
 FUEL        H2                           1.0000000         0.000      0.000
 OXIDANT     H2                           1.0000000         0.000      0.000

 O/F=    1.00000  %FUEL= 50.000000  R,EQ.RATIO= 0.000000  PHI,EQ.RATIO=-1.000000

 THERMODYNAMIC PROPERTIES

 P, BAR            54.000
 T, K             4840.00
 RHO, KG/CU M    2.0153-1
 H, KJ/KG        158392.9
 U, KJ/KG        131597.3
 G, KJ/KG       -386722.8
 S, KJ/(KG)(K)   112.6272

 M, (1/n)           1.502
 (dLV/dLP)t      -1.11256
 (dLV/dLT)p        2.2993
 Cp, KJ/(KG)(K)  103.3179
 GAMMAs            1.2059
 SON VEL,M/SEC     5684.4

 TRANSPORT PROPERTIES (GASES ONLY)
   CONDUCTIVITY IN UNITS OF MILLIWATTS/(CM)(K)

 VISC,MILLIPOISE  0.76927

  WITH EQUILIBRIUM REACTIONS

 Cp, KJ/(KG)(K)  103.3179
 CONDUCTIVITY    141.8731
 PRANDTL NUMBER    0.5602

  WITH FROZEN REACTIONS

 Cp, KJ/(KG)(K)   20.2860
 CONDUCTIVITY     21.6492
 PRANDTL NUMBER    0.7208

 MASS FRACTIONS

 *H               0.34229
 *H2              0.65771

  * THERMODYNAMIC PROPERTIES FITTED TO 20000.K

 NOTE. WEIGHT FRACTION OF FUEL IN TOTAL FUELS AND OF OXIDANT IN TOTAL OXIDANTS



  
