
 *******************************************************************************

         NASA-GLENN CHEMICAL EQUILIBRIUM PROGRAM CEA2, MAY 21, 2004
                   BY  BONNIE MCBRIDE AND SANFORD GORDON
      REFS: NASA RP-1311, PART I, 1994 AND NASA RP-1311, PART II, 1996

 *******************************************************************************



  prob tp ions
  p,bar= 12.0,13.2,14.8,16.5,18.0,20.0,22.5,25.0,28.0,31.0,35.0,39.0,44.0,49.0,54
 .0
  t,k= 3350,3360,3370,3380,3390,3400,3410,3420,3430,3440,3450,3460,3470,3480,3490
  
  
  reac
  fuel H2                wt%=100.0000
  oxid H2                wt%=100.0000
  
  output short
  
  output massf
  
  output siunits
  
  output transport
  
 end





               THERMODYNAMIC EQUILIBRIUM PROPERTIES AT ASSIGNED

                           TEMPERATURE AND PRESSURE

 CASE =                

             REACTANT                    WT FRACTION      ENERGY      TEMP
                                          (SEE NOTE)     KJ/KG-MOL      K  
 FUEL        H2                           1.0000000         0.000      0.000
 OXIDANT     H2                           1.0000000         0.000      0.000

 O/F=    1.00000  %FUEL= 50.000000  R,EQ.RATIO= 0.000000  PHI,EQ.RATIO=-1.000000

 THERMODYNAMIC PROPERTIES

 P, BAR            12.000   12.000   12.000   12.000   12.000   12.000   12.000   12.000
 T, K             3350.00  3360.00  3370.00  3380.00  3390.00  3400.00  3410.00  3420.00
 RHO, KG/CU M    8.1952-2 8.1594-2 8.1236-2 8.0879-2 8.0521-2 8.0164-2 7.9808-2 7.9452-2
 H, KJ/KG         64184.9  64713.1  65247.9  65789.3  66337.2  66891.8  67453.2  68021.3
 U, KJ/KG         49542.2  50006.1  50476.2  50952.2  51434.3  51922.6  52417.1  52917.8
 G, KJ/KG       -260828.4-261798.4-262770.9-263745.0-264720.8-265698.2-266677.2-267657.9
 S, KJ/(KG)(K)    97.0189  97.1760  97.3350  97.4954  97.6572  97.8206  97.9854  98.1518

 M, (1/n)           1.902    1.900    1.897    1.894    1.891    1.888    1.886    1.883
 (dLV/dLP)t      -1.02809 -1.02874 -1.02940 -1.03008 -1.03076 -1.03145 -1.03215 -1.03286
 (dLV/dLT)p        1.4649   1.4744   1.4839   1.4935   1.5033   1.5131   1.5231   1.5331
 Cp, KJ/(KG)(K)   52.5152  53.1576  53.8071  54.4634  55.1267  55.7968  56.4738  57.1575
 GAMMAs            1.1772   1.1768   1.1764   1.1761   1.1757   1.1754   1.1750   1.1747
 SON VEL,M/SEC     4151.8   4160.2   4168.7   4177.2   4185.9   4194.6   4203.4   4212.2

 TRANSPORT PROPERTIES (GASES ONLY)
   CONDUCTIVITY IN UNITS OF MILLIWATTS/(CM)(K)

 VISC,MILLIPOISE  0.52788  0.52977  0.53166  0.53357  0.53548  0.53739  0.53932  0.54125

  WITH EQUILIBRIUM REACTIONS

 Cp, KJ/(KG)(K)   52.5151  53.1576  53.8071  54.4634  55.1267  55.7968  56.4738  57.1575
 CONDUCTIVITY     59.1181  60.0717  61.0360  62.0103  62.9944  63.9883  64.9918  66.0048
 PRANDTL NUMBER    0.4689   0.4688   0.4687   0.4686   0.4686   0.4686   0.4686   0.4687

  WITH FROZEN REACTIONS

 Cp, KJ/(KG)(K)   18.8777  18.8900  18.9023  18.9146  18.9269  18.9392  18.9515  18.9638
 CONDUCTIVITY     14.3197  14.3805  14.4423  14.5043  14.5665  14.6289  14.6915  14.7542
 PRANDTL NUMBER    0.6959   0.6959   0.6958   0.6958   0.6958   0.6957   0.6957   0.6957

 MASS FRACTIONS

 *H               0.05975  0.06123  0.06275  0.06429  0.06586  0.06745  0.06908  0.07073
 *H2              0.94025  0.93877  0.93725  0.93571  0.93414  0.93255  0.93092  0.92927

  * THERMODYNAMIC PROPERTIES FITTED TO 20000.K

 NOTE. WEIGHT FRACTION OF FUEL IN TOTAL FUELS AND OF OXIDANT IN TOTAL OXIDANTS









               THERMODYNAMIC EQUILIBRIUM PROPERTIES AT ASSIGNED

                           TEMPERATURE AND PRESSURE

 CASE =                

             REACTANT                    WT FRACTION      ENERGY      TEMP
                                          (SEE NOTE)     KJ/KG-MOL      K  
 FUEL        H2                           1.0000000         0.000      0.000
 OXIDANT     H2                           1.0000000         0.000      0.000

 O/F=    1.00000  %FUEL= 50.000000  R,EQ.RATIO= 0.000000  PHI,EQ.RATIO=-1.000000

 THERMODYNAMIC PROPERTIES

 P, BAR            12.000   12.000   12.000   12.000   12.000   12.000   12.000   13.200
 T, K             3430.00  3440.00  3450.00  3460.00  3470.00  3480.00  3490.00  3350.00
 RHO, KG/CU M    7.9096-2 7.8740-2 7.8384-2 7.8029-2 7.7674-2 7.7320-2 7.6965-2 9.0384-2
 H, KJ/KG         68596.3  69178.3  69767.3  70363.3  70966.5  71576.9  72194.5  63550.9
 U, KJ/KG         53424.8  53938.2  54458.1  54984.4  55517.3  56056.9  56603.1  48946.6
 G, KJ/KG       -268640.2-269624.3-270610.0-271597.5-272586.7-273577.6-274570.3-259433.7
 S, KJ/(KG)(K)    98.3197  98.4891  98.6601  98.8326  99.0067  99.1823  99.3596  96.4133

 M, (1/n)           1.880    1.877    1.874    1.871    1.868    1.864    1.861    1.907
 (dLV/dLP)t      -1.03359 -1.03432 -1.03506 -1.03581 -1.03657 -1.03734 -1.03812 -1.02687
 (dLV/dLT)p        1.5433   1.5535   1.5639   1.5744   1.5849   1.5955   1.6063   1.4447
 Cp, KJ/(KG)(K)   57.8480  58.5452  59.2491  59.9596  60.6766  61.4001  62.1301  50.9602
 GAMMAs            1.1744   1.1741   1.1739   1.1736   1.1734   1.1731   1.1729   1.1788
 SON VEL,M/SEC     4221.1   4230.1   4239.2   4248.4   4257.6   4266.9   4276.3   4149.2

 TRANSPORT PROPERTIES (GASES ONLY)
   CONDUCTIVITY IN UNITS OF MILLIWATTS/(CM)(K)

 VISC,MILLIPOISE  0.54319  0.54514  0.54709  0.54905  0.55102  0.55299  0.55497  0.52674

  WITH EQUILIBRIUM REACTIONS

 Cp, KJ/(KG)(K)   57.8480  58.5452  59.2491  59.9596  60.6766  61.4001  62.1301  50.9602
 CONDUCTIVITY     67.0272  68.0588  69.0995  70.1491  71.2075  72.2746  73.3500  57.1270
 PRANDTL NUMBER    0.4688   0.4689   0.4691   0.4693   0.4695   0.4698   0.4701   0.4699

  WITH FROZEN REACTIONS

 Cp, KJ/(KG)(K)   18.9761  18.9884  19.0007  19.0130  19.0253  19.0376  19.0498  18.8725
 CONDUCTIVITY     14.8171  14.8801  14.9432  15.0065  15.0699  15.1334  15.1970  14.2805
 PRANDTL NUMBER    0.6957   0.6956   0.6956   0.6956   0.6956   0.6957   0.6957   0.6961

 MASS FRACTIONS

 *H               0.07242  0.07413  0.07587  0.07765  0.07945  0.08129  0.08315  0.05698
 *H2              0.92758  0.92587  0.92413  0.92235  0.92055  0.91871  0.91685  0.94302

  * THERMODYNAMIC PROPERTIES FITTED TO 20000.K

 NOTE. WEIGHT FRACTION OF FUEL IN TOTAL FUELS AND OF OXIDANT IN TOTAL OXIDANTS









               THERMODYNAMIC EQUILIBRIUM PROPERTIES AT ASSIGNED

                           TEMPERATURE AND PRESSURE

 CASE =                

             REACTANT                    WT FRACTION      ENERGY      TEMP
                                          (SEE NOTE)     KJ/KG-MOL      K  
 FUEL        H2                           1.0000000         0.000      0.000
 OXIDANT     H2                           1.0000000         0.000      0.000

 O/F=    1.00000  %FUEL= 50.000000  R,EQ.RATIO= 0.000000  PHI,EQ.RATIO=-1.000000

 THERMODYNAMIC PROPERTIES

 P, BAR            13.200   13.200   13.200   13.200   13.200   13.200   13.200   13.200
 T, K             3360.00  3370.00  3380.00  3390.00  3400.00  3410.00  3420.00  3430.00
 RHO, KG/CU M    8.9994-2 8.9605-2 8.9216-2 8.8828-2 8.8440-2 8.8052-2 8.7665-2 8.7278-2
 H, KJ/KG         64063.6  64582.4  65107.5  65638.9  66176.7  66720.9  67271.6  67828.9
 U, KJ/KG         49396.0  49851.1  50312.0  50778.7  51251.3  51729.8  52214.3  52704.8
 G, KJ/KG       -260398.5-261364.9-262332.9-263302.4-264273.6-265246.3-266220.6-267196.5
 S, KJ/(KG)(K)    96.5661  96.7203  96.8759  97.0328  97.1912  97.3511  97.5123  97.6751

 M, (1/n)           1.905    1.902    1.899    1.897    1.894    1.891    1.888    1.886
 (dLV/dLP)t      -1.02749 -1.02813 -1.02877 -1.02943 -1.03009 -1.03077 -1.03145 -1.03215
 (dLV/dLT)p        1.4537   1.4629   1.4722   1.4815   1.4910   1.5006   1.5102   1.5200
 Cp, KJ/(KG)(K)   51.5744  52.1952  52.8228  53.4570  54.0978  54.7452  55.3991  56.0596
 GAMMAs            1.1784   1.1780   1.1776   1.1772   1.1769   1.1765   1.1762   1.1759
 SON VEL,M/SEC     4157.4   4165.7   4174.1   4182.6   4191.1   4199.7   4208.4   4217.1

 TRANSPORT PROPERTIES (GASES ONLY)
   CONDUCTIVITY IN UNITS OF MILLIWATTS/(CM)(K)

 VISC,MILLIPOISE  0.52860  0.53048  0.53236  0.53425  0.53615  0.53805  0.53997  0.54189

  WITH EQUILIBRIUM REACTIONS

 Cp, KJ/(KG)(K)   51.5744  52.1952  52.8228  53.4570  54.0978  54.7452  55.3991  56.0596
 CONDUCTIVITY     58.0455  58.9740  59.9122  60.8601  61.8177  62.7847  63.7611  64.7468
 PRANDTL NUMBER    0.4697   0.4695   0.4694   0.4693   0.4692   0.4692   0.4692   0.4692

  WITH FROZEN REACTIONS

 Cp, KJ/(KG)(K)   18.8848  18.8970  18.9092  18.9214  18.9336  18.9458  18.9580  18.9701
 CONDUCTIVITY     14.3415  14.4028  14.4643  14.5260  14.5878  14.6499  14.7121  14.7746
 PRANDTL NUMBER    0.6961   0.6960   0.6960   0.6959   0.6959   0.6958   0.6958   0.6958

 MASS FRACTIONS

 *H               0.05840  0.05984  0.06131  0.06280  0.06433  0.06588  0.06746  0.06906
 *H2              0.94160  0.94016  0.93869  0.93720  0.93567  0.93412  0.93254  0.93094

  * THERMODYNAMIC PROPERTIES FITTED TO 20000.K

 NOTE. WEIGHT FRACTION OF FUEL IN TOTAL FUELS AND OF OXIDANT IN TOTAL OXIDANTS









               THERMODYNAMIC EQUILIBRIUM PROPERTIES AT ASSIGNED

                           TEMPERATURE AND PRESSURE

 CASE =                

             REACTANT                    WT FRACTION      ENERGY      TEMP
                                          (SEE NOTE)     KJ/KG-MOL      K  
 FUEL        H2                           1.0000000         0.000      0.000
 OXIDANT     H2                           1.0000000         0.000      0.000

 O/F=    1.00000  %FUEL= 50.000000  R,EQ.RATIO= 0.000000  PHI,EQ.RATIO=-1.000000

 THERMODYNAMIC PROPERTIES

 P, BAR            13.200   13.200   13.200   13.200   13.200   13.200   14.800   14.800
 T, K             3440.00  3450.00  3460.00  3470.00  3480.00  3490.00  3350.00  3360.00
 RHO, KG/CU M    8.6891-2 8.6505-2 8.6119-2 8.5734-2 8.5348-2 8.4963-2 1.0164-1 1.0121-1
 H, KJ/KG         68392.8  68963.5  69540.8  70125.1  70716.2  71314.3  62828.6  63323.3
 U, KJ/KG         53201.5  53704.2  54213.3  54728.5  55250.2  55778.2  48267.8  48700.6
 G, KJ/KG       -268174.1-269153.3-270134.2-271116.8-272101.0-273087.0-257765.3-258723.0
 S, KJ/(KG)(K)    97.8392  98.0049  98.1720  98.3406  98.5107  98.6823  95.6997  95.8471

 M, (1/n)           1.883    1.880    1.877    1.874    1.871    1.868    1.913    1.910
 (dLV/dLP)t      -1.03285 -1.03356 -1.03428 -1.03502 -1.03576 -1.03651 -1.02546 -1.02606
 (dLV/dLT)p        1.5299   1.5398   1.5499   1.5601   1.5703   1.5807   1.4214   1.4301
 Cp, KJ/(KG)(K)   56.7266  57.4000  58.0799  58.7661  59.4586  60.1574  49.1862  49.7679
 GAMMAs            1.1756   1.1753   1.1750   1.1747   1.1745   1.1742   1.1808   1.1803
 SON VEL,M/SEC     4226.0   4234.8   4243.8   4252.9   4262.0   4271.2   4146.4   4154.5

 TRANSPORT PROPERTIES (GASES ONLY)
   CONDUCTIVITY IN UNITS OF MILLIWATTS/(CM)(K)

 VISC,MILLIPOISE  0.54382  0.54575  0.54769  0.54964  0.55160  0.55356  0.52540  0.52724

  WITH EQUILIBRIUM REACTIONS

 Cp, KJ/(KG)(K)   56.7266  57.4000  58.0799  58.7661  59.4586  60.1574  49.1862  49.7679
 CONDUCTIVITY     65.7417  66.7456  67.7584  68.7800  69.8102  70.8488  54.8425  55.7195
 PRANDTL NUMBER    0.4692   0.4693   0.4695   0.4696   0.4698   0.4700   0.4712   0.4709

  WITH FROZEN REACTIONS

 Cp, KJ/(KG)(K)   18.9823  18.9945  19.0067  19.0189  19.0311  19.0432  18.8667  18.8788
 CONDUCTIVITY     14.8371  14.8998  14.9627  15.0257  15.0888  15.1521  14.2356  14.2959
 PRANDTL NUMBER    0.6957   0.6957   0.6957   0.6957   0.6957   0.6957   0.6963   0.6963

 MASS FRACTIONS

 *H               0.07070  0.07236  0.07405  0.07577  0.07753  0.07931  0.05382  0.05516
 *H2              0.92930  0.92764  0.92595  0.92423  0.92247  0.92069  0.94618  0.94484

  * THERMODYNAMIC PROPERTIES FITTED TO 20000.K

 NOTE. WEIGHT FRACTION OF FUEL IN TOTAL FUELS AND OF OXIDANT IN TOTAL OXIDANTS









               THERMODYNAMIC EQUILIBRIUM PROPERTIES AT ASSIGNED

                           TEMPERATURE AND PRESSURE

 CASE =                

             REACTANT                    WT FRACTION      ENERGY      TEMP
                                          (SEE NOTE)     KJ/KG-MOL      K  
 FUEL        H2                           1.0000000         0.000      0.000
 OXIDANT     H2                           1.0000000         0.000      0.000

 O/F=    1.00000  %FUEL= 50.000000  R,EQ.RATIO= 0.000000  PHI,EQ.RATIO=-1.000000

 THERMODYNAMIC PROPERTIES

 P, BAR            14.800   14.800   14.800   14.800   14.800   14.800   14.800   14.800
 T, K             3370.00  3380.00  3390.00  3400.00  3410.00  3420.00  3430.00  3440.00
 RHO, KG/CU M    1.0078-1 1.0035-1 9.9922-2 9.9493-2 9.9064-2 9.8636-2 9.8208-2 9.7781-2
 H, KJ/KG         63823.9  64330.5  64843.0  65361.5  65886.2  66417.0  66954.0  67497.4
 U, KJ/KG         49138.7  49582.3  50031.4  50486.1  50946.4  51412.3  51884.0  52361.5
 G, KJ/KG       -259682.2-260642.9-261605.1-262568.8-263534.1-264500.9-265469.3-266439.3
 S, KJ/(KG)(K)    95.9959  96.1460  96.2974  96.4501  96.6042  96.7596  96.9164  97.0746

 M, (1/n)           1.908    1.906    1.903    1.900    1.898    1.895    1.892    1.890
 (dLV/dLP)t      -1.02666 -1.02728 -1.02790 -1.02854 -1.02918 -1.02983 -1.03049 -1.03116
 (dLV/dLT)p        1.4388   1.4476   1.4565   1.4656   1.4747   1.4839   1.4932   1.5027
 Cp, KJ/(KG)(K)   50.3560  50.9505  51.5513  52.1585  52.7720  53.3917  54.0178  54.6500
 GAMMAs            1.1799   1.1795   1.1791   1.1787   1.1784   1.1780   1.1777   1.1773
 SON VEL,M/SEC     4162.6   4170.8   4179.0   4187.4   4195.8   4204.2   4212.8   4221.4

 TRANSPORT PROPERTIES (GASES ONLY)
   CONDUCTIVITY IN UNITS OF MILLIWATTS/(CM)(K)

 VISC,MILLIPOISE  0.52909  0.53095  0.53282  0.53469  0.53657  0.53847  0.54036  0.54227

  WITH EQUILIBRIUM REACTIONS

 Cp, KJ/(KG)(K)   50.3560  50.9505  51.5513  52.1585  52.7720  53.3917  54.0178  54.6500
 CONDUCTIVITY     56.6062  57.5025  58.4082  59.3234  60.2478  61.1816  62.1244  63.0763
 PRANDTL NUMBER    0.4707   0.4705   0.4703   0.4701   0.4700   0.4699   0.4699   0.4698

  WITH FROZEN REACTIONS

 Cp, KJ/(KG)(K)   18.8909  18.9030  18.9150  18.9271  18.9392  18.9513  18.9634  18.9754
 CONDUCTIVITY     14.3565  14.4174  14.4784  14.5396  14.6011  14.6627  14.7245  14.7865
 PRANDTL NUMBER    0.6962   0.6961   0.6961   0.6960   0.6960   0.6960   0.6959   0.6959

 MASS FRACTIONS

 *H               0.05652  0.05791  0.05932  0.06076  0.06223  0.06372  0.06524  0.06678
 *H2              0.94348  0.94209  0.94068  0.93924  0.93777  0.93628  0.93476  0.93322

  * THERMODYNAMIC PROPERTIES FITTED TO 20000.K

 NOTE. WEIGHT FRACTION OF FUEL IN TOTAL FUELS AND OF OXIDANT IN TOTAL OXIDANTS









               THERMODYNAMIC EQUILIBRIUM PROPERTIES AT ASSIGNED

                           TEMPERATURE AND PRESSURE

 CASE =                

             REACTANT                    WT FRACTION      ENERGY      TEMP
                                          (SEE NOTE)     KJ/KG-MOL      K  
 FUEL        H2                           1.0000000         0.000      0.000
 OXIDANT     H2                           1.0000000         0.000      0.000

 O/F=    1.00000  %FUEL= 50.000000  R,EQ.RATIO= 0.000000  PHI,EQ.RATIO=-1.000000

 THERMODYNAMIC PROPERTIES

 P, BAR            14.800   14.800   14.800   14.800   14.800   16.500   16.500   16.500
 T, K             3450.00  3460.00  3470.00  3480.00  3490.00  3350.00  3360.00  3370.00
 RHO, KG/CU M    9.7354-2 9.6928-2 9.6502-2 9.6076-2 9.5650-2 1.1362-1 1.1315-1 1.1268-1
 H, KJ/KG         68047.0  68603.2  69165.7  69734.8  70310.6  62179.0  62657.6  63141.9
 U, KJ/KG         52844.8  53334.0  53829.2  54330.3  54837.6  47657.5  48075.2  48498.1
 G, KJ/KG       -267410.8-268383.9-269358.7-270335.1-271313.1-256184.2-257135.2-258087.7
 S, KJ/(KG)(K)    97.2342  97.3951  97.5575  97.7212  97.8864  95.0338  95.1764  95.3203

 M, (1/n)           1.887    1.884    1.881    1.878    1.875    1.918    1.916    1.913
 (dLV/dLP)t      -1.03184 -1.03253 -1.03323 -1.03394 -1.03465 -1.02419 -1.02476 -1.02534
 (dLV/dLT)p        1.5122   1.5218   1.5315   1.5413   1.5512   1.4004   1.4086   1.4169
 Cp, KJ/(KG)(K)   55.2885  55.9331  56.5839  57.2407  57.9036  47.5894  48.1418  48.7003
 GAMMAs            1.1770   1.1767   1.1764   1.1762   1.1759   1.1827   1.1822   1.1818
 SON VEL,M/SEC     4230.1   4238.8   4247.6   4256.5   4265.5   4144.1   4152.0   4160.0

 TRANSPORT PROPERTIES (GASES ONLY)
   CONDUCTIVITY IN UNITS OF MILLIWATTS/(CM)(K)

 VISC,MILLIPOISE  0.54418  0.54610  0.54803  0.54996  0.55190  0.52418  0.52599  0.52782

  WITH EQUILIBRIUM REACTIONS

 Cp, KJ/(KG)(K)   55.2885  55.9331  56.5839  57.2407  57.9036  47.5894  48.1418  48.7003
 CONDUCTIVITY     64.0371  65.0068  65.9851  66.9720  67.9673  52.7735  53.6125  54.4609
 PRANDTL NUMBER    0.4698   0.4699   0.4699   0.4701   0.4702   0.4727   0.4723   0.4720

  WITH FROZEN REACTIONS

 Cp, KJ/(KG)(K)   18.9875  18.9996  19.0116  19.0237  19.0357  18.8614  18.8734  18.8854
 CONDUCTIVITY     14.8487  14.9110  14.9735  15.0361  15.0989  14.1942  14.2538  14.3138
 PRANDTL NUMBER    0.6959   0.6958   0.6958   0.6958   0.6958   0.6965   0.6965   0.6964

 MASS FRACTIONS

 *H               0.06836  0.06996  0.07158  0.07324  0.07492  0.05098  0.05225  0.05354
 *H2              0.93164  0.93004  0.92842  0.92676  0.92508  0.94902  0.94775  0.94646

  * THERMODYNAMIC PROPERTIES FITTED TO 20000.K

 NOTE. WEIGHT FRACTION OF FUEL IN TOTAL FUELS AND OF OXIDANT IN TOTAL OXIDANTS









               THERMODYNAMIC EQUILIBRIUM PROPERTIES AT ASSIGNED

                           TEMPERATURE AND PRESSURE

 CASE =                

             REACTANT                    WT FRACTION      ENERGY      TEMP
                                          (SEE NOTE)     KJ/KG-MOL      K  
 FUEL        H2                           1.0000000         0.000      0.000
 OXIDANT     H2                           1.0000000         0.000      0.000

 O/F=    1.00000  %FUEL= 50.000000  R,EQ.RATIO= 0.000000  PHI,EQ.RATIO=-1.000000

 THERMODYNAMIC PROPERTIES

 P, BAR            16.500   16.500   16.500   16.500   16.500   16.500   16.500   16.500
 T, K             3380.00  3390.00  3400.00  3410.00  3420.00  3430.00  3440.00  3450.00
 RHO, KG/CU M    1.1220-1 1.1173-1 1.1126-1 1.1079-1 1.1031-1 1.0984-1 1.0937-1 1.0890-1
 H, KJ/KG         63631.7  64127.2  64628.4  65135.4  65648.3  66167.1  66691.9  67222.7
 U, KJ/KG         48926.1  49359.4  49797.9  50241.8  50691.1  51145.8  51606.0  52071.8
 G, KJ/KG       -259041.6-259997.0-260953.8-261912.2-262872.0-263833.4-264796.2-265760.6
 S, KJ/(KG)(K)    95.4655  95.6118  95.7595  95.9084  96.0586  96.2101  96.3628  96.5169

 M, (1/n)           1.911    1.909    1.906    1.904    1.901    1.899    1.896    1.893
 (dLV/dLP)t      -1.02592 -1.02652 -1.02712 -1.02774 -1.02836 -1.02899 -1.02963 -1.03028
 (dLV/dLT)p        1.4254   1.4339   1.4425   1.4512   1.4600   1.4690   1.4780   1.4871
 Cp, KJ/(KG)(K)   49.2649  49.8355  50.4122  50.9950  51.5838  52.1786  52.7794  53.3861
 GAMMAs            1.1813   1.1809   1.1805   1.1801   1.1798   1.1794   1.1791   1.1787
 SON VEL,M/SEC     4168.0   4176.1   4184.2   4192.4   4200.7   4209.1   4217.5   4226.0

 TRANSPORT PROPERTIES (GASES ONLY)
   CONDUCTIVITY IN UNITS OF MILLIWATTS/(CM)(K)

 VISC,MILLIPOISE  0.52966  0.53150  0.53335  0.53521  0.53708  0.53896  0.54084  0.54273

  WITH EQUILIBRIUM REACTIONS

 Cp, KJ/(KG)(K)   49.2649  49.8355  50.4122  50.9950  51.5838  52.1786  52.7794  53.3861
 CONDUCTIVITY     55.3186  56.1856  57.0618  57.9471  58.8415  59.7448  60.6571  61.5781
 PRANDTL NUMBER    0.4717   0.4714   0.4712   0.4710   0.4708   0.4707   0.4706   0.4705

  WITH FROZEN REACTIONS

 Cp, KJ/(KG)(K)   18.8974  18.9094  18.9213  18.9333  18.9453  18.9573  18.9692  18.9812
 CONDUCTIVITY     14.3740  14.4344  14.4950  14.5559  14.6169  14.6781  14.7395  14.8011
 PRANDTL NUMBER    0.6963   0.6963   0.6962   0.6962   0.6961   0.6961   0.6960   0.6960

 MASS FRACTIONS

 *H               0.05486  0.05619  0.05756  0.05895  0.06036  0.06180  0.06326  0.06476
 *H2              0.94514  0.94381  0.94244  0.94105  0.93964  0.93820  0.93674  0.93524

  * THERMODYNAMIC PROPERTIES FITTED TO 20000.K

 NOTE. WEIGHT FRACTION OF FUEL IN TOTAL FUELS AND OF OXIDANT IN TOTAL OXIDANTS









               THERMODYNAMIC EQUILIBRIUM PROPERTIES AT ASSIGNED

                           TEMPERATURE AND PRESSURE

 CASE =                

             REACTANT                    WT FRACTION      ENERGY      TEMP
                                          (SEE NOTE)     KJ/KG-MOL      K  
 FUEL        H2                           1.0000000         0.000      0.000
 OXIDANT     H2                           1.0000000         0.000      0.000

 O/F=    1.00000  %FUEL= 50.000000  R,EQ.RATIO= 0.000000  PHI,EQ.RATIO=-1.000000

 THERMODYNAMIC PROPERTIES

 P, BAR            16.500   16.500   16.500   16.500   18.000   18.000   18.000   18.000
 T, K             3460.00  3470.00  3480.00  3490.00  3350.00  3360.00  3370.00  3380.00
 RHO, KG/CU M    1.0843-1 1.0797-1 1.0750-1 1.0703-1 1.2421-1 1.2370-1 1.2319-1 1.2267-1
 H, KJ/KG         67759.7  68302.7  68852.0  69407.6  61683.8  62150.2  62621.9  63099.0
 U, KJ/KG         52543.1  53020.1  53502.9  53991.4  47192.3  47598.5  48009.7  48425.9
 G, KJ/KG       -266726.6-267694.1-268663.1-269633.8-254922.0-255867.7-256814.9-257763.5
 S, KJ/(KG)(K)    96.6723  96.8290  96.9871  97.1465  94.5092  94.6482  94.7884  94.9297

 M, (1/n)           1.891    1.888    1.885    1.882    1.922    1.920    1.918    1.915
 (dLV/dLP)t      -1.03094 -1.03161 -1.03228 -1.03297 -1.02322 -1.02376 -1.02432 -1.02488
 (dLV/dLT)p        1.4963   1.5055   1.5149   1.5244   1.3843   1.3922   1.4002   1.4083
 Cp, KJ/(KG)(K)   53.9988  54.6174  55.2418  55.8721  46.3713  46.9013  47.4371  47.9787
 GAMMAs            1.1784   1.1781   1.1778   1.1775   1.1842   1.1837   1.1833   1.1828
 SON VEL,M/SEC     4234.5   4243.2   4251.8   4260.6   4142.6   4150.3   4158.1   4166.0

 TRANSPORT PROPERTIES (GASES ONLY)
   CONDUCTIVITY IN UNITS OF MILLIWATTS/(CM)(K)

 VISC,MILLIPOISE  0.54463  0.54654  0.54845  0.55037  0.52323  0.52503  0.52684  0.52865

  WITH EQUILIBRIUM REACTIONS

 Cp, KJ/(KG)(K)   53.9988  54.6174  55.2418  55.8721  46.3713  46.9012  47.4371  47.9787
 CONDUCTIVITY     62.5078  63.4462  64.3930  65.3482  51.1871  51.9966  52.8153  53.6432
 PRANDTL NUMBER    0.4705   0.4705   0.4705   0.4706   0.4740   0.4736   0.4732   0.4728

  WITH FROZEN REACTIONS

 Cp, KJ/(KG)(K)   18.9931  19.0051  19.0170  19.0290  18.8574  18.8693  18.8812  18.8931
 CONDUCTIVITY     14.8629  14.9249  14.9870  15.0492  14.1619  14.2211  14.2805  14.3402
 PRANDTL NUMBER    0.6960   0.6959   0.6959   0.6959   0.6967   0.6966   0.6966   0.6965

 MASS FRACTIONS

 *H               0.06627  0.06781  0.06938  0.07098  0.04882  0.05003  0.05127  0.05253
 *H2              0.93373  0.93219  0.93062  0.92902  0.95118  0.94997  0.94873  0.94747

  * THERMODYNAMIC PROPERTIES FITTED TO 20000.K

 NOTE. WEIGHT FRACTION OF FUEL IN TOTAL FUELS AND OF OXIDANT IN TOTAL OXIDANTS









               THERMODYNAMIC EQUILIBRIUM PROPERTIES AT ASSIGNED

                           TEMPERATURE AND PRESSURE

 CASE =                

             REACTANT                    WT FRACTION      ENERGY      TEMP
                                          (SEE NOTE)     KJ/KG-MOL      K  
 FUEL        H2                           1.0000000         0.000      0.000
 OXIDANT     H2                           1.0000000         0.000      0.000

 O/F=    1.00000  %FUEL= 50.000000  R,EQ.RATIO= 0.000000  PHI,EQ.RATIO=-1.000000

 THERMODYNAMIC PROPERTIES

 P, BAR            18.000   18.000   18.000   18.000   18.000   18.000   18.000   18.000
 T, K             3390.00  3400.00  3410.00  3420.00  3430.00  3440.00  3450.00  3460.00
 RHO, KG/CU M    1.2216-1 1.2165-1 1.2114-1 1.2063-1 1.2013-1 1.1962-1 1.1911-1 1.1860-1
 H, KJ/KG         63581.5  64069.5  64563.1  65062.3  65567.2  66077.8  66594.2  67116.5
 U, KJ/KG         48847.0  49273.3  49704.6  50141.2  50582.9  51030.0  51482.3  51940.1
 G, KJ/KG       -258713.5-259664.9-260617.8-261572.1-262528.0-263485.2-264444.0-265404.3
 S, KJ/(KG)(K)    95.0723  95.2160  95.3610  95.5071  95.6546  95.8032  95.9531  96.1043

 M, (1/n)           1.913    1.911    1.908    1.906    1.903    1.901    1.898    1.896
 (dLV/dLP)t      -1.02546 -1.02604 -1.02663 -1.02723 -1.02784 -1.02846 -1.02908 -1.02972
 (dLV/dLT)p        1.4165   1.4248   1.4332   1.4417   1.4503   1.4590   1.4678   1.4766
 Cp, KJ/(KG)(K)   48.5263  49.0797  49.6389  50.2040  50.7748  51.3515  51.9339  52.5220
 GAMMAs            1.1824   1.1820   1.1816   1.1812   1.1808   1.1805   1.1801   1.1798
 SON VEL,M/SEC     4174.0   4182.0   4190.1   4198.2   4206.4   4214.7   4223.0   4231.4

 TRANSPORT PROPERTIES (GASES ONLY)
   CONDUCTIVITY IN UNITS OF MILLIWATTS/(CM)(K)

 VISC,MILLIPOISE  0.53048  0.53231  0.53415  0.53600  0.53786  0.53973  0.54160  0.54348

  WITH EQUILIBRIUM REACTIONS

 Cp, KJ/(KG)(K)   48.5263  49.0797  49.6389  50.2040  50.7748  51.3515  51.9339  52.5220
 CONDUCTIVITY     54.4801  55.3260  56.1809  57.0447  57.9173  58.7987  59.6887  60.5874
 PRANDTL NUMBER    0.4725   0.4722   0.4720   0.4717   0.4715   0.4714   0.4712   0.4711

  WITH FROZEN REACTIONS

 Cp, KJ/(KG)(K)   18.9050  18.9169  18.9288  18.9407  18.9526  18.9645  18.9764  18.9882
 CONDUCTIVITY     14.4001  14.4602  14.5205  14.5810  14.6418  14.7027  14.7639  14.8252
 PRANDTL NUMBER    0.6964   0.6964   0.6963   0.6963   0.6962   0.6962   0.6961   0.6961

 MASS FRACTIONS

 *H               0.05381  0.05512  0.05645  0.05780  0.05918  0.06058  0.06201  0.06346
 *H2              0.94619  0.94488  0.94355  0.94220  0.94082  0.93942  0.93799  0.93654

  * THERMODYNAMIC PROPERTIES FITTED TO 20000.K

 NOTE. WEIGHT FRACTION OF FUEL IN TOTAL FUELS AND OF OXIDANT IN TOTAL OXIDANTS









               THERMODYNAMIC EQUILIBRIUM PROPERTIES AT ASSIGNED

                           TEMPERATURE AND PRESSURE

 CASE =                

             REACTANT                    WT FRACTION      ENERGY      TEMP
                                          (SEE NOTE)     KJ/KG-MOL      K  
 FUEL        H2                           1.0000000         0.000      0.000
 OXIDANT     H2                           1.0000000         0.000      0.000

 O/F=    1.00000  %FUEL= 50.000000  R,EQ.RATIO= 0.000000  PHI,EQ.RATIO=-1.000000

 THERMODYNAMIC PROPERTIES

 P, BAR            18.000   18.000   18.000   20.000   20.000   20.000   20.000   20.000
 T, K             3470.00  3480.00  3490.00  3350.00  3360.00  3370.00  3380.00  3390.00
 RHO, KG/CU M    1.1810-1 1.1759-1 1.1709-1 1.3834-1 1.3778-1 1.3721-1 1.3665-1 1.3609-1
 H, KJ/KG         67644.7  68178.9  68719.0  61112.2  61564.4  62021.6  62483.9  62951.5
 U, KJ/KG         52403.2  52871.9  53346.1  46655.2  47048.2  47445.9  47848.3  48255.5
 G, KJ/KG       -266366.1-267329.4-268294.3-253397.0-254336.4-255277.3-256219.5-257163.1
 S, KJ/(KG)(K)    96.2567  96.4104  96.5654  93.8833  94.0181  94.1540  94.2910  94.4291

 M, (1/n)           1.893    1.890    1.888    1.927    1.925    1.922    1.920    1.918
 (dLV/dLP)t      -1.03036 -1.03101 -1.03168 -1.02208 -1.02261 -1.02314 -1.02368 -1.02422
 (dLV/dLT)p        1.4856   1.4947   1.5038   1.3656   1.3731   1.3808   1.3885   1.3964
 Cp, KJ/(KG)(K)   53.1159  53.7154  54.3207  44.9641  45.4680  45.9775  46.4927  47.0134
 GAMMAs            1.1794   1.1791   1.1788   1.1861   1.1856   1.1851   1.1847   1.1842
 SON VEL,M/SEC     4239.9   4248.4   4257.0   4140.9   4148.5   4156.2   4163.9   4171.7

 TRANSPORT PROPERTIES (GASES ONLY)
   CONDUCTIVITY IN UNITS OF MILLIWATTS/(CM)(K)

 VISC,MILLIPOISE  0.54537  0.54727  0.54917  0.52211  0.52389  0.52568  0.52747  0.52928

  WITH EQUILIBRIUM REACTIONS

 Cp, KJ/(KG)(K)   53.1159  53.7154  54.3207  44.9641  45.4680  45.9775  46.4927  47.0134
 CONDUCTIVITY     61.4945  62.4100  63.3338  49.3456  50.1206  50.9045  51.6974  52.4990
 PRANDTL NUMBER    0.4711   0.4710   0.4710   0.4758   0.4753   0.4748   0.4744   0.4740

  WITH FROZEN REACTIONS

 Cp, KJ/(KG)(K)   19.0001  19.0119  19.0238  18.8528  18.8646  18.8764  18.8882  18.9000
 CONDUCTIVITY     14.8867  14.9484  15.0102  14.1239  14.1824  14.2412  14.3003  14.3595
 PRANDTL NUMBER    0.6961   0.6960   0.6960   0.6969   0.6968   0.6968   0.6967   0.6966

 MASS FRACTIONS

 *H               0.06494  0.06644  0.06797  0.04632  0.04747  0.04864  0.04984  0.05106
 *H2              0.93506  0.93356  0.93203  0.95368  0.95253  0.95136  0.95016  0.94894

  * THERMODYNAMIC PROPERTIES FITTED TO 20000.K

 NOTE. WEIGHT FRACTION OF FUEL IN TOTAL FUELS AND OF OXIDANT IN TOTAL OXIDANTS









               THERMODYNAMIC EQUILIBRIUM PROPERTIES AT ASSIGNED

                           TEMPERATURE AND PRESSURE

 CASE =                

             REACTANT                    WT FRACTION      ENERGY      TEMP
                                          (SEE NOTE)     KJ/KG-MOL      K  
 FUEL        H2                           1.0000000         0.000      0.000
 OXIDANT     H2                           1.0000000         0.000      0.000

 O/F=    1.00000  %FUEL= 50.000000  R,EQ.RATIO= 0.000000  PHI,EQ.RATIO=-1.000000

 THERMODYNAMIC PROPERTIES

 P, BAR            20.000   20.000   20.000   20.000   20.000   20.000   20.000   20.000
 T, K             3400.00  3410.00  3420.00  3430.00  3440.00  3450.00  3460.00  3470.00
 RHO, KG/CU M    1.3553-1 1.3497-1 1.3441-1 1.3386-1 1.3330-1 1.3274-1 1.3219-1 1.3163-1
 H, KJ/KG         63424.2  63902.3  64385.7  64874.5  65368.7  65868.5  66373.9  66884.8
 U, KJ/KG         48667.5  49084.4  49506.2  49933.0  50364.8  50801.7  51243.7  51690.9
 G, KJ/KG       -258108.1-259054.5-260002.3-260951.5-261902.1-262854.2-263807.8-264762.8
 S, KJ/(KG)(K)    94.5683  94.7087  94.8503  94.9930  95.1369  95.2820  95.4282  95.5757

 M, (1/n)           1.916    1.913    1.911    1.909    1.906    1.904    1.901    1.899
 (dLV/dLP)t      -1.02478 -1.02534 -1.02592 -1.02650 -1.02709 -1.02769 -1.02830 -1.02891
 (dLV/dLT)p        1.4043   1.4123   1.4204   1.4287   1.4370   1.4454   1.4538   1.4624
 Cp, KJ/(KG)(K)   47.5398  48.0717  48.6092  49.1523  49.7009  50.2551  50.8147  51.3799
 GAMMAs            1.1838   1.1834   1.1830   1.1826   1.1822   1.1818   1.1815   1.1811
 SON VEL,M/SEC     4179.6   4187.5   4195.5   4203.5   4211.6   4219.8   4228.0   4236.3

 TRANSPORT PROPERTIES (GASES ONLY)
   CONDUCTIVITY IN UNITS OF MILLIWATTS/(CM)(K)

 VISC,MILLIPOISE  0.53109  0.53291  0.53474  0.53657  0.53842  0.54027  0.54213  0.54400

  WITH EQUILIBRIUM REACTIONS

 Cp, KJ/(KG)(K)   47.5398  48.0717  48.6092  49.1523  49.7009  50.2551  50.8147  51.3799
 CONDUCTIVITY     53.3094  54.1286  54.9564  55.7929  56.6380  57.4915  58.3534  59.2237
 PRANDTL NUMBER    0.4736   0.4733   0.4730   0.4727   0.4725   0.4723   0.4721   0.4719

  WITH FROZEN REACTIONS

 Cp, KJ/(KG)(K)   18.9118  18.9236  18.9354  18.9472  18.9590  18.9708  18.9826  18.9943
 CONDUCTIVITY     14.4190  14.4787  14.5387  14.5988  14.6592  14.7197  14.7805  14.8414
 PRANDTL NUMBER    0.6966   0.6965   0.6965   0.6964   0.6963   0.6963   0.6963   0.6962

 MASS FRACTIONS

 *H               0.05230  0.05356  0.05484  0.05615  0.05748  0.05884  0.06022  0.06162
 *H2              0.94770  0.94644  0.94516  0.94385  0.94252  0.94116  0.93978  0.93838

  * THERMODYNAMIC PROPERTIES FITTED TO 20000.K

 NOTE. WEIGHT FRACTION OF FUEL IN TOTAL FUELS AND OF OXIDANT IN TOTAL OXIDANTS









               THERMODYNAMIC EQUILIBRIUM PROPERTIES AT ASSIGNED

                           TEMPERATURE AND PRESSURE

 CASE =                

             REACTANT                    WT FRACTION      ENERGY      TEMP
                                          (SEE NOTE)     KJ/KG-MOL      K  
 FUEL        H2                           1.0000000         0.000      0.000
 OXIDANT     H2                           1.0000000         0.000      0.000

 O/F=    1.00000  %FUEL= 50.000000  R,EQ.RATIO= 0.000000  PHI,EQ.RATIO=-1.000000

 THERMODYNAMIC PROPERTIES

 P, BAR            20.000   20.000   22.500   22.500   22.500   22.500   22.500   22.500
 T, K             3480.00  3490.00  3350.00  3360.00  3370.00  3380.00  3390.00  3400.00
 RHO, KG/CU M    1.3108-1 1.3052-1 1.5603-1 1.5540-1 1.5478-1 1.5415-1 1.5353-1 1.5291-1
 H, KJ/KG         67401.5  67923.9  60507.6  60944.7  61386.7  61833.4  62285.1  62741.7
 U, KJ/KG         52143.3  52600.9  46087.1  46466.1  46849.5  47237.4  47629.8  48026.8
 G, KJ/KG       -265719.3-266677.3-251696.4-252628.9-253562.8-254498.0-255434.6-256372.5
 S, KJ/(KG)(K)    95.7244  95.8743  93.1952  93.3255  93.4568  93.5892  93.7226  93.8571

 M, (1/n)           1.896    1.894    1.932    1.930    1.927    1.925    1.923    1.921
 (dLV/dLP)t      -1.02954 -1.03017 -1.02088 -1.02138 -1.02188 -1.02239 -1.02291 -1.02344
 (dLV/dLT)p        1.4711   1.4798   1.3456   1.3528   1.3601   1.3674   1.3749   1.3824
 Cp, KJ/(KG)(K)   51.9505  52.5266  43.4747  43.9510  44.4326  44.9195  45.4118  45.9094
 GAMMAs            1.1808   1.1805   1.1882   1.1877   1.1872   1.1868   1.1863   1.1858
 SON VEL,M/SEC     4244.6   4253.0   4139.4   4146.9   4154.4   4162.0   4169.6   4177.3

 TRANSPORT PROPERTIES (GASES ONLY)
   CONDUCTIVITY IN UNITS OF MILLIWATTS/(CM)(K)

 VISC,MILLIPOISE  0.54587  0.54775  0.52091  0.52267  0.52443  0.52620  0.52798  0.52977

  WITH EQUILIBRIUM REACTIONS

 Cp, KJ/(KG)(K)   51.9505  52.5266  43.4747  43.9510  44.4326  44.9195  45.4118  45.9094
 CONDUCTIVITY     60.1023  60.9891  47.3862  48.1241  48.8707  49.6258  50.3895  51.1617
 PRANDTL NUMBER    0.4718   0.4717   0.4779   0.4773   0.4768   0.4763   0.4758   0.4754

  WITH FROZEN REACTIONS

 Cp, KJ/(KG)(K)   19.0061  19.0178  18.8478  18.8596  18.8713  18.8830  18.8948  18.9065
 CONDUCTIVITY     14.9025  14.9638  14.0829  14.1407  14.1988  14.2571  14.3156  14.3744
 PRANDTL NUMBER    0.6962   0.6961   0.6972   0.6971   0.6970   0.6969   0.6969   0.6968

 MASS FRACTIONS

 *H               0.06305  0.06450  0.04367  0.04476  0.04587  0.04699  0.04814  0.04931
 *H2              0.93695  0.93550  0.95633  0.95524  0.95413  0.95301  0.95186  0.95069

  * THERMODYNAMIC PROPERTIES FITTED TO 20000.K

 NOTE. WEIGHT FRACTION OF FUEL IN TOTAL FUELS AND OF OXIDANT IN TOTAL OXIDANTS









               THERMODYNAMIC EQUILIBRIUM PROPERTIES AT ASSIGNED

                           TEMPERATURE AND PRESSURE

 CASE =                

             REACTANT                    WT FRACTION      ENERGY      TEMP
                                          (SEE NOTE)     KJ/KG-MOL      K  
 FUEL        H2                           1.0000000         0.000      0.000
 OXIDANT     H2                           1.0000000         0.000      0.000

 O/F=    1.00000  %FUEL= 50.000000  R,EQ.RATIO= 0.000000  PHI,EQ.RATIO=-1.000000

 THERMODYNAMIC PROPERTIES

 P, BAR            22.500   22.500   22.500   22.500   22.500   22.500   22.500   22.500
 T, K             3410.00  3420.00  3430.00  3440.00  3450.00  3460.00  3470.00  3480.00
 RHO, KG/CU M    1.5229-1 1.5167-1 1.5105-1 1.5043-1 1.4981-1 1.4919-1 1.4858-1 1.4796-1
 H, KJ/KG         63203.3  63669.9  64141.7  64618.6  65100.8  65588.2  66080.9  66579.0
 U, KJ/KG         48428.4  48834.6  49245.6  49661.2  50081.7  50507.0  50937.2  51372.4
 G, KJ/KG       -257311.7-258252.3-259194.3-260137.7-261082.4-262028.6-262976.2-263925.2
 S, KJ/(KG)(K)    93.9927  94.1293  94.2671  94.4059  94.5459  94.6869  94.8291  94.9725

 M, (1/n)           1.919    1.917    1.915    1.912    1.910    1.908    1.905    1.903
 (dLV/dLP)t      -1.02398 -1.02452 -1.02507 -1.02563 -1.02620 -1.02678 -1.02737 -1.02796
 (dLV/dLT)p        1.3901   1.3978   1.4056   1.4135   1.4215   1.4295   1.4377   1.4459
 Cp, KJ/(KG)(K)   46.4124  46.9206  47.4341  47.9529  48.4770  49.0064  49.5410  50.0808
 GAMMAs            1.1854   1.1850   1.1846   1.1842   1.1838   1.1834   1.1830   1.1827
 SON VEL,M/SEC     4185.0   4192.8   4200.7   4208.6   4216.5   4224.6   4232.7   4240.8

 TRANSPORT PROPERTIES (GASES ONLY)
   CONDUCTIVITY IN UNITS OF MILLIWATTS/(CM)(K)

 VISC,MILLIPOISE  0.53156  0.53337  0.53518  0.53700  0.53883  0.54066  0.54251  0.54436

  WITH EQUILIBRIUM REACTIONS

 Cp, KJ/(KG)(K)   46.4124  46.9206  47.4341  47.9529  48.4770  49.0064  49.5410  50.0808
 CONDUCTIVITY     51.9423  52.7314  53.5289  54.3347  55.1488  55.9711  56.8016  57.6402
 PRANDTL NUMBER    0.4750   0.4746   0.4742   0.4739   0.4736   0.4734   0.4732   0.4730

  WITH FROZEN REACTIONS

 Cp, KJ/(KG)(K)   18.9182  18.9299  18.9415  18.9532  18.9649  18.9766  18.9882  18.9999
 CONDUCTIVITY     14.4334  14.4927  14.5521  14.6118  14.6717  14.7318  14.7921  14.8525
 PRANDTL NUMBER    0.6967   0.6967   0.6966   0.6966   0.6965   0.6964   0.6964   0.6964

 MASS FRACTIONS

 *H               0.05050  0.05172  0.05295  0.05421  0.05548  0.05678  0.05811  0.05945
 *H2              0.94950  0.94828  0.94705  0.94579  0.94452  0.94322  0.94189  0.94055

  * THERMODYNAMIC PROPERTIES FITTED TO 20000.K

 NOTE. WEIGHT FRACTION OF FUEL IN TOTAL FUELS AND OF OXIDANT IN TOTAL OXIDANTS









               THERMODYNAMIC EQUILIBRIUM PROPERTIES AT ASSIGNED

                           TEMPERATURE AND PRESSURE

 CASE =                

             REACTANT                    WT FRACTION      ENERGY      TEMP
                                          (SEE NOTE)     KJ/KG-MOL      K  
 FUEL        H2                           1.0000000         0.000      0.000
 OXIDANT     H2                           1.0000000         0.000      0.000

 O/F=    1.00000  %FUEL= 50.000000  R,EQ.RATIO= 0.000000  PHI,EQ.RATIO=-1.000000

 THERMODYNAMIC PROPERTIES

 P, BAR            22.500   25.000   25.000   25.000   25.000   25.000   25.000   25.000
 T, K             3490.00  3350.00  3360.00  3370.00  3380.00  3390.00  3400.00  3410.00
 RHO, KG/CU M    1.4735-1 1.7374-1 1.7305-1 1.7236-1 1.7167-1 1.7099-1 1.7031-1 1.6962-1
 H, KJ/KG         67082.6  59996.0  60420.4  60849.3  61282.9  61721.1  62164.0  62611.7
 U, KJ/KG         51812.5  45606.4  45973.5  46344.9  46720.5  47100.3  47484.6  47873.2
 G, KJ/KG       -264875.6-250178.6-251105.1-252032.9-252962.0-253892.3-254824.0-255757.0
 S, KJ/(KG)(K)    95.1170  92.5894  92.7159  92.8434  92.9718  93.1013  93.2318  93.3632

 M, (1/n)           1.900    1.936    1.934    1.932    1.930    1.928    1.926    1.924
 (dLV/dLP)t      -1.02856 -1.01986 -1.02033 -1.02081 -1.02130 -1.02180 -1.02230 -1.02281
 (dLV/dLT)p        1.4543   1.3287   1.3355   1.3425   1.3495   1.3566   1.3638   1.3711
 Cp, KJ/(KG)(K)   50.6258  42.2134  42.6663  43.1242  43.5872  44.0553  44.5285  45.0068
 GAMMAs            1.1823   1.1902   1.1897   1.1891   1.1887   1.1882   1.1877   1.1873
 SON VEL,M/SEC     4249.1   4138.4   4145.7   4153.1   4160.5   4168.0   4175.5   4183.1

 TRANSPORT PROPERTIES (GASES ONLY)
   CONDUCTIVITY IN UNITS OF MILLIWATTS/(CM)(K)

 VISC,MILLIPOISE  0.54621  0.51988  0.52162  0.52336  0.52511  0.52686  0.52863  0.53040

  WITH EQUILIBRIUM REACTIONS

 Cp, KJ/(KG)(K)   50.6258  42.2134  42.6663  43.1242  43.5872  44.0553  44.5285  45.0068
 CONDUCTIVITY     58.4868  45.7187  46.4247  47.1391  47.8619  48.5929  49.3322  50.0797
 PRANDTL NUMBER    0.4728   0.4800   0.4794   0.4788   0.4782   0.4777   0.4772   0.4767

  WITH FROZEN REACTIONS

 Cp, KJ/(KG)(K)   19.0115  18.8437  18.8554  18.8670  18.8786  18.8903  18.9019  18.9135
 CONDUCTIVITY     14.9132  14.0474  14.1046  14.1620  14.2197  14.2776  14.3358  14.3942
 PRANDTL NUMBER    0.6963   0.6974   0.6973   0.6972   0.6972   0.6971   0.6970   0.6969

 MASS FRACTIONS

 *H               0.06082  0.04143  0.04247  0.04352  0.04459  0.04568  0.04679  0.04792
 *H2              0.93918  0.95857  0.95753  0.95648  0.95541  0.95432  0.95321  0.95208

  * THERMODYNAMIC PROPERTIES FITTED TO 20000.K

 NOTE. WEIGHT FRACTION OF FUEL IN TOTAL FUELS AND OF OXIDANT IN TOTAL OXIDANTS









               THERMODYNAMIC EQUILIBRIUM PROPERTIES AT ASSIGNED

                           TEMPERATURE AND PRESSURE

 CASE =                

             REACTANT                    WT FRACTION      ENERGY      TEMP
                                          (SEE NOTE)     KJ/KG-MOL      K  
 FUEL        H2                           1.0000000         0.000      0.000
 OXIDANT     H2                           1.0000000         0.000      0.000

 O/F=    1.00000  %FUEL= 50.000000  R,EQ.RATIO= 0.000000  PHI,EQ.RATIO=-1.000000

 THERMODYNAMIC PROPERTIES

 P, BAR            25.000   25.000   25.000   25.000   25.000   25.000   25.000   25.000
 T, K             3420.00  3430.00  3440.00  3450.00  3460.00  3470.00  3480.00  3490.00
 RHO, KG/CU M    1.6894-1 1.6826-1 1.6758-1 1.6690-1 1.6623-1 1.6555-1 1.6488-1 1.6420-1
 H, KJ/KG         63064.2  63521.5  63983.7  64450.9  64923.2  65400.4  65882.8  66370.4
 U, KJ/KG         48266.2  48663.7  49065.7  49472.3  49883.5  50299.3  50719.8  51145.1
 G, KJ/KG       -256691.3-257626.9-258563.9-259502.2-260441.9-261382.9-262325.3-263269.2
 S, KJ/(KG)(K)    93.4957  93.6293  93.7638  93.8995  94.0361  94.1739  94.3127  94.4526

 M, (1/n)           1.922    1.919    1.917    1.915    1.913    1.911    1.908    1.906
 (dLV/dLP)t      -1.02333 -1.02386 -1.02439 -1.02494 -1.02549 -1.02605 -1.02662 -1.02719
 (dLV/dLT)p        1.3785   1.3859   1.3935   1.4011   1.4088   1.4166   1.4245   1.4325
 Cp, KJ/(KG)(K)   45.4901  45.9785  46.4720  46.9705  47.4741  47.9826  48.4962  49.0148
 GAMMAs            1.1868   1.1864   1.1860   1.1856   1.1852   1.1848   1.1844   1.1841
 SON VEL,M/SEC     4190.8   4198.5   4206.2   4214.0   4221.9   4229.8   4237.8   4245.9

 TRANSPORT PROPERTIES (GASES ONLY)
   CONDUCTIVITY IN UNITS OF MILLIWATTS/(CM)(K)

 VISC,MILLIPOISE  0.53219  0.53398  0.53578  0.53758  0.53939  0.54122  0.54305  0.54488

  WITH EQUILIBRIUM REACTIONS

 Cp, KJ/(KG)(K)   45.4901  45.9785  46.4720  46.9705  47.4741  47.9826  48.4962  49.0148
 CONDUCTIVITY     50.8354  51.5992  52.3712  53.1513  53.9393  54.7354  55.5393  56.3512
 PRANDTL NUMBER    0.4762   0.4758   0.4754   0.4751   0.4747   0.4744   0.4742   0.4739

  WITH FROZEN REACTIONS

 Cp, KJ/(KG)(K)   18.9251  18.9367  18.9483  18.9599  18.9715  18.9831  18.9946  19.0062
 CONDUCTIVITY     14.4528  14.5116  14.5707  14.6299  14.6894  14.7491  14.8090  14.8691
 PRANDTL NUMBER    0.6969   0.6968   0.6967   0.6967   0.6966   0.6966   0.6965   0.6965

 MASS FRACTIONS

 *H               0.04907  0.05024  0.05143  0.05264  0.05388  0.05514  0.05641  0.05771
 *H2              0.95093  0.94976  0.94857  0.94736  0.94612  0.94486  0.94359  0.94229

  * THERMODYNAMIC PROPERTIES FITTED TO 20000.K

 NOTE. WEIGHT FRACTION OF FUEL IN TOTAL FUELS AND OF OXIDANT IN TOTAL OXIDANTS









               THERMODYNAMIC EQUILIBRIUM PROPERTIES AT ASSIGNED

                           TEMPERATURE AND PRESSURE

 CASE =                

             REACTANT                    WT FRACTION      ENERGY      TEMP
                                          (SEE NOTE)     KJ/KG-MOL      K  
 FUEL        H2                           1.0000000         0.000      0.000
 OXIDANT     H2                           1.0000000         0.000      0.000

 O/F=    1.00000  %FUEL= 50.000000  R,EQ.RATIO= 0.000000  PHI,EQ.RATIO=-1.000000

 THERMODYNAMIC PROPERTIES

 P, BAR            28.000   28.000   28.000   28.000   28.000   28.000   28.000   28.000
 T, K             3350.00  3360.00  3370.00  3380.00  3390.00  3400.00  3410.00  3420.00
 RHO, KG/CU M    1.9501-1 1.9425-1 1.9349-1 1.9273-1 1.9197-1 1.9121-1 1.9046-1 1.8970-1
 H, KJ/KG         59474.8  59886.2  60301.9  60722.0  61146.5  61575.5  62009.0  62447.0
 U, KJ/KG         45116.7  45471.7  45830.7  46193.8  46560.9  46932.1  47307.5  47687.1
 G, KJ/KG       -248549.6-249469.7-250391.0-251313.6-252237.4-253162.5-254088.8-255016.4
 S, KJ/(KG)(K)    91.9476  92.0702  92.1938  92.3182  92.4436  92.5700  92.6973  92.8256

 M, (1/n)           1.940    1.938    1.936    1.934    1.932    1.931    1.929    1.927
 (dLV/dLP)t      -1.01881 -1.01926 -1.01972 -1.02018 -1.02065 -1.02113 -1.02162 -1.02211
 (dLV/dLT)p        1.3114   1.3179   1.3245   1.3311   1.3379   1.3447   1.3517   1.3587
 Cp, KJ/(KG)(K)   40.9279  41.3568  41.7905  42.2290  42.6724  43.1207  43.5737  44.0316
 GAMMAs            1.1923   1.1918   1.1912   1.1907   1.1902   1.1897   1.1893   1.1888
 SON VEL,M/SEC     4137.5   4144.7   4151.9   4159.2   4166.6   4174.0   4181.4   4188.9

 TRANSPORT PROPERTIES (GASES ONLY)
   CONDUCTIVITY IN UNITS OF MILLIWATTS/(CM)(K)

 VISC,MILLIPOISE  0.51882  0.52053  0.52225  0.52397  0.52571  0.52745  0.52920  0.53096

  WITH EQUILIBRIUM REACTIONS

 Cp, KJ/(KG)(K)   40.9279  41.3568  41.7905  42.2290  42.6724  43.1207  43.5737  44.0316
 CONDUCTIVITY     44.0110  44.6842  45.3654  46.0547  46.7519  47.4572  48.1703  48.8915
 PRANDTL NUMBER    0.4825   0.4818   0.4811   0.4804   0.4798   0.4793   0.4787   0.4782

  WITH FROZEN REACTIONS

 Cp, KJ/(KG)(K)   18.8395  18.8510  18.8626  18.8742  18.8857  18.8973  18.9088  18.9203
 CONDUCTIVITY     14.0106  14.0671  14.1239  14.1809  14.2381  14.2956  14.3533  14.4112
 PRANDTL NUMBER    0.6976   0.6975   0.6975   0.6974   0.6973   0.6972   0.6972   0.6971

 MASS FRACTIONS

 *H               0.03916  0.04013  0.04112  0.04214  0.04317  0.04422  0.04528  0.04637
 *H2              0.96084  0.95987  0.95888  0.95786  0.95683  0.95578  0.95472  0.95363

  * THERMODYNAMIC PROPERTIES FITTED TO 20000.K

 NOTE. WEIGHT FRACTION OF FUEL IN TOTAL FUELS AND OF OXIDANT IN TOTAL OXIDANTS









               THERMODYNAMIC EQUILIBRIUM PROPERTIES AT ASSIGNED

                           TEMPERATURE AND PRESSURE

 CASE =                

             REACTANT                    WT FRACTION      ENERGY      TEMP
                                          (SEE NOTE)     KJ/KG-MOL      K  
 FUEL        H2                           1.0000000         0.000      0.000
 OXIDANT     H2                           1.0000000         0.000      0.000

 O/F=    1.00000  %FUEL= 50.000000  R,EQ.RATIO= 0.000000  PHI,EQ.RATIO=-1.000000

 THERMODYNAMIC PROPERTIES

 P, BAR            28.000   28.000   28.000   28.000   28.000   28.000   28.000   31.000
 T, K             3430.00  3440.00  3450.00  3460.00  3470.00  3480.00  3490.00  3350.00
 RHO, KG/CU M    1.8895-1 1.8820-1 1.8745-1 1.8670-1 1.8595-1 1.8520-1 1.8446-1 2.1631-1
 H, KJ/KG         62889.6  63336.9  63788.9  64245.6  64707.1  65173.5  65644.7  59031.1
 U, KJ/KG         48070.9  48459.0  48851.4  49248.1  49649.3  50054.9  50465.1  44699.8
 G, KJ/KG       -255945.3-256875.5-257807.0-258739.8-259674.0-260609.5-261546.3-247089.6
 S, KJ/(KG)(K)    92.9548  93.0850  93.2162  93.3484  93.4816  93.6158  93.7510  91.3793

 M, (1/n)           1.925    1.922    1.920    1.918    1.916    1.914    1.912    1.944
 (dLV/dLP)t      -1.02261 -1.02312 -1.02364 -1.02416 -1.02470 -1.02524 -1.02578 -1.01792
 (dLV/dLT)p        1.3658   1.3730   1.3802   1.3876   1.3950   1.4025   1.4101   1.2965
 Cp, KJ/(KG)(K)   44.4943  44.9618  45.4342  45.9113  46.3932  46.8799  47.3714  39.8330
 GAMMAs            1.1884   1.1879   1.1875   1.1871   1.1867   1.1863   1.1859   1.1942
 SON VEL,M/SEC     4196.4   4204.0   4211.7   4219.4   4227.2   4235.0   4242.9   4137.0

 TRANSPORT PROPERTIES (GASES ONLY)
   CONDUCTIVITY IN UNITS OF MILLIWATTS/(CM)(K)

 VISC,MILLIPOISE  0.53273  0.53450  0.53629  0.53808  0.53988  0.54168  0.54349  0.51790

  WITH EQUILIBRIUM REACTIONS

 Cp, KJ/(KG)(K)   44.4943  44.9618  45.4342  45.9113  46.3932  46.8799  47.3714  39.8330
 CONDUCTIVITY     49.6205  50.3574  51.1021  51.8547  52.6150  53.3830  54.1586  42.5503
 PRANDTL NUMBER    0.4777   0.4772   0.4768   0.4764   0.4760   0.4757   0.4754   0.4848

  WITH FROZEN REACTIONS

 Cp, KJ/(KG)(K)   18.9318  18.9433  18.9548  18.9663  18.9778  18.9893  19.0008  18.8359
 CONDUCTIVITY     14.4694  14.5277  14.5864  14.6452  14.7042  14.7635  14.8229  13.9787
 PRANDTL NUMBER    0.6970   0.6970   0.6969   0.6968   0.6968   0.6967   0.6967   0.6978

 MASS FRACTIONS

 *H               0.04748  0.04861  0.04975  0.05092  0.05211  0.05331  0.05454  0.03722
 *H2              0.95252  0.95139  0.95025  0.94908  0.94789  0.94669  0.94546  0.96278

  * THERMODYNAMIC PROPERTIES FITTED TO 20000.K

 NOTE. WEIGHT FRACTION OF FUEL IN TOTAL FUELS AND OF OXIDANT IN TOTAL OXIDANTS









               THERMODYNAMIC EQUILIBRIUM PROPERTIES AT ASSIGNED

                           TEMPERATURE AND PRESSURE

 CASE =                

             REACTANT                    WT FRACTION      ENERGY      TEMP
                                          (SEE NOTE)     KJ/KG-MOL      K  
 FUEL        H2                           1.0000000         0.000      0.000
 OXIDANT     H2                           1.0000000         0.000      0.000

 O/F=    1.00000  %FUEL= 50.000000  R,EQ.RATIO= 0.000000  PHI,EQ.RATIO=-1.000000

 THERMODYNAMIC PROPERTIES

 P, BAR            31.000   31.000   31.000   31.000   31.000   31.000   31.000   31.000
 T, K             3360.00  3370.00  3380.00  3390.00  3400.00  3410.00  3420.00  3430.00
 RHO, KG/CU M    2.1547-1 2.1464-1 2.1381-1 2.1297-1 2.1214-1 2.1132-1 2.1049-1 2.0967-1
 H, KJ/KG         59431.5  59835.9  60244.6  60657.4  61074.5  61495.8  61921.5  62351.6
 U, KJ/KG         45044.5  45393.1  45745.4  46101.7  46461.8  46825.9  47194.0  47566.1
 G, KJ/KG       -248004.0-248919.6-249836.4-250754.4-251673.6-252594.1-253515.8-254438.7
 S, KJ/(KG)(K)    91.4986  91.6188  91.7399  91.8619  91.9847  92.1085  92.2331  92.3587

 M, (1/n)           1.942    1.940    1.938    1.936    1.935    1.933    1.931    1.929
 (dLV/dLP)t      -1.01834 -1.01878 -1.01922 -1.01967 -1.02013 -1.02059 -1.02107 -1.02155
 (dLV/dLT)p        1.3027   1.3090   1.3154   1.3219   1.3284   1.3350   1.3417   1.3485
 Cp, KJ/(KG)(K)   40.2414  40.6545  41.0721  41.4944  41.9213  42.3528  42.7890  43.2297
 GAMMAs            1.1937   1.1931   1.1926   1.1921   1.1916   1.1911   1.1906   1.1902
 SON VEL,M/SEC     4144.0   4151.2   4158.3   4165.5   4172.8   4180.1   4187.5   4194.9

 TRANSPORT PROPERTIES (GASES ONLY)
   CONDUCTIVITY IN UNITS OF MILLIWATTS/(CM)(K)

 VISC,MILLIPOISE  0.51959  0.52129  0.52299  0.52471  0.52643  0.52816  0.52990  0.53165

  WITH EQUILIBRIUM REACTIONS

 Cp, KJ/(KG)(K)   40.2414  40.6545  41.0721  41.4944  41.9213  42.3528  42.7890  43.2297
 CONDUCTIVITY     43.1951  43.8477  44.5081  45.1762  45.8520  46.5356  47.2268  47.9257
 PRANDTL NUMBER    0.4841   0.4833   0.4826   0.4819   0.4813   0.4807   0.4801   0.4796

  WITH FROZEN REACTIONS

 Cp, KJ/(KG)(K)   18.8474  18.8589  18.8704  18.8818  18.8933  18.9048  18.9162  18.9277
 CONDUCTIVITY     14.0346  14.0908  14.1471  14.2038  14.2606  14.3177  14.3751  14.4326
 PRANDTL NUMBER    0.6978   0.6977   0.6976   0.6975   0.6974   0.6974   0.6973   0.6972

 MASS FRACTIONS

 *H               0.03814  0.03909  0.04005  0.04103  0.04203  0.04304  0.04407  0.04513
 *H2              0.96186  0.96091  0.95995  0.95897  0.95797  0.95696  0.95593  0.95487

  * THERMODYNAMIC PROPERTIES FITTED TO 20000.K

 NOTE. WEIGHT FRACTION OF FUEL IN TOTAL FUELS AND OF OXIDANT IN TOTAL OXIDANTS









               THERMODYNAMIC EQUILIBRIUM PROPERTIES AT ASSIGNED

                           TEMPERATURE AND PRESSURE

 CASE =                

             REACTANT                    WT FRACTION      ENERGY      TEMP
                                          (SEE NOTE)     KJ/KG-MOL      K  
 FUEL        H2                           1.0000000         0.000      0.000
 OXIDANT     H2                           1.0000000         0.000      0.000

 O/F=    1.00000  %FUEL= 50.000000  R,EQ.RATIO= 0.000000  PHI,EQ.RATIO=-1.000000

 THERMODYNAMIC PROPERTIES

 P, BAR            31.000   31.000   31.000   31.000   31.000   31.000   35.000   35.000
 T, K             3440.00  3450.00  3460.00  3470.00  3480.00  3490.00  3350.00  3360.00
 RHO, KG/CU M    2.0884-1 2.0802-1 2.0720-1 2.0638-1 2.0556-1 2.0474-1 2.4474-1 2.4380-1
 H, KJ/KG         62786.1  63225.1  63668.7  64116.8  64569.5  65026.8  58530.6  58918.5
 U, KJ/KG         47942.4  48322.7  48707.2  49095.9  49488.8  49886.0  44229.5  44562.7
 G, KJ/KG       -255363.0-256288.4-257215.2-258143.3-259072.6-260003.3-245352.2-246259.9
 S, KJ/(KG)(K)    92.4852  92.6126  92.7410  92.8703  93.0006  93.1318  90.7113  90.8269

 M, (1/n)           1.927    1.925    1.923    1.921    1.919    1.917    1.948    1.946
 (dLV/dLP)t      -1.02203 -1.02253 -1.02303 -1.02354 -1.02405 -1.02458 -1.01690 -1.01731
 (dLV/dLT)p        1.3554   1.3623   1.3694   1.3765   1.3837   1.3909   1.2797   1.2856
 Cp, KJ/(KG)(K)   43.6751  44.1250  44.5796  45.0387  45.5024  45.9707  38.5974  38.9827
 GAMMAs            1.1897   1.1893   1.1889   1.1884   1.1880   1.1876   1.1965   1.1959
 SON VEL,M/SEC     4202.4   4209.9   4217.5   4225.1   4232.8   4240.5   4136.6   4143.5

 TRANSPORT PROPERTIES (GASES ONLY)
   CONDUCTIVITY IN UNITS OF MILLIWATTS/(CM)(K)

 VISC,MILLIPOISE  0.53340  0.53516  0.53693  0.53871  0.54050  0.54229  0.51684  0.51851

  WITH EQUILIBRIUM REACTIONS

 Cp, KJ/(KG)(K)   43.6751  44.1250  44.5796  45.0387  45.5024  45.9707  38.5974  38.9827
 CONDUCTIVITY     48.6323  49.3465  50.0682  50.7975  51.5344  52.2787  40.8948  41.5072
 PRANDTL NUMBER    0.4790   0.4785   0.4781   0.4776   0.4772   0.4769   0.4878   0.4870

  WITH FROZEN REACTIONS

 Cp, KJ/(KG)(K)   18.9391  18.9505  18.9619  18.9733  18.9847  18.9961  18.8318  18.8432
 CONDUCTIVITY     14.4904  14.5484  14.6066  14.6651  14.7237  14.7826  13.9422  13.9973
 PRANDTL NUMBER    0.6972   0.6971   0.6970   0.6970   0.6969   0.6969   0.6981   0.6980

 MASS FRACTIONS

 *H               0.04620  0.04729  0.04840  0.04953  0.05068  0.05184  0.03503  0.03590
 *H2              0.95380  0.95271  0.95160  0.95047  0.94932  0.94816  0.96497  0.96410

  * THERMODYNAMIC PROPERTIES FITTED TO 20000.K

 NOTE. WEIGHT FRACTION OF FUEL IN TOTAL FUELS AND OF OXIDANT IN TOTAL OXIDANTS









               THERMODYNAMIC EQUILIBRIUM PROPERTIES AT ASSIGNED

                           TEMPERATURE AND PRESSURE

 CASE =                

             REACTANT                    WT FRACTION      ENERGY      TEMP
                                          (SEE NOTE)     KJ/KG-MOL      K  
 FUEL        H2                           1.0000000         0.000      0.000
 OXIDANT     H2                           1.0000000         0.000      0.000

 O/F=    1.00000  %FUEL= 50.000000  R,EQ.RATIO= 0.000000  PHI,EQ.RATIO=-1.000000

 THERMODYNAMIC PROPERTIES

 P, BAR            35.000   35.000   35.000   35.000   35.000   35.000   35.000   35.000
 T, K             3370.00  3380.00  3390.00  3400.00  3410.00  3420.00  3430.00  3440.00
 RHO, KG/CU M    2.4287-1 2.4194-1 2.4101-1 2.4009-1 2.3916-1 2.3824-1 2.3732-1 2.3640-1
 H, KJ/KG         59310.3  59706.0  60105.6  60509.3  60917.0  61328.8  61744.7  62164.9
 U, KJ/KG         44899.4  45239.7  45583.6  45931.3  46282.7  46637.8  46996.8  47359.6
 G, KJ/KG       -247168.7-248078.7-248989.9-249902.3-250815.9-251730.7-252646.7-253563.9
 S, KJ/(KG)(K)    90.9433  91.0606  91.1786  91.2975  91.4173  91.5379  91.6593  91.7816

 M, (1/n)           1.944    1.943    1.941    1.939    1.937    1.936    1.934    1.932
 (dLV/dLP)t      -1.01772 -1.01814 -1.01856 -1.01900 -1.01943 -1.01988 -1.02034 -1.02080
 (dLV/dLT)p        1.2916   1.2976   1.3037   1.3099   1.3162   1.3225   1.3290   1.3355
 Cp, KJ/(KG)(K)   39.3724  39.7664  40.1648  40.5676  40.9748  41.3863  41.8022  42.2225
 GAMMAs            1.1954   1.1949   1.1943   1.1938   1.1933   1.1928   1.1924   1.1919
 SON VEL,M/SEC     4150.5   4157.6   4164.6   4171.8   4178.9   4186.2   4193.4   4200.7

 TRANSPORT PROPERTIES (GASES ONLY)
   CONDUCTIVITY IN UNITS OF MILLIWATTS/(CM)(K)

 VISC,MILLIPOISE  0.52019  0.52187  0.52356  0.52526  0.52697  0.52869  0.53041  0.53214

  WITH EQUILIBRIUM REACTIONS

 Cp, KJ/(KG)(K)   39.3724  39.7664  40.1648  40.5676  40.9748  41.3863  41.8022  42.2225
 CONDUCTIVITY     42.1272  42.7545  43.3893  44.0315  44.6812  45.3382  46.0027  46.6745
 PRANDTL NUMBER    0.4862   0.4854   0.4847   0.4839   0.4833   0.4826   0.4820   0.4814

  WITH FROZEN REACTIONS

 Cp, KJ/(KG)(K)   18.8547  18.8661  18.8775  18.8888  18.9002  18.9116  18.9230  18.9343
 CONDUCTIVITY     14.0528  14.1084  14.1643  14.2205  14.2768  14.3334  14.3903  14.4473
 PRANDTL NUMBER    0.6979   0.6979   0.6978   0.6977   0.6976   0.6975   0.6975   0.6974

 MASS FRACTIONS

 *H               0.03679  0.03769  0.03862  0.03955  0.04051  0.04148  0.04248  0.04348
 *H2              0.96321  0.96231  0.96138  0.96045  0.95949  0.95852  0.95752  0.95652

  * THERMODYNAMIC PROPERTIES FITTED TO 20000.K

 NOTE. WEIGHT FRACTION OF FUEL IN TOTAL FUELS AND OF OXIDANT IN TOTAL OXIDANTS









               THERMODYNAMIC EQUILIBRIUM PROPERTIES AT ASSIGNED

                           TEMPERATURE AND PRESSURE

 CASE =                

             REACTANT                    WT FRACTION      ENERGY      TEMP
                                          (SEE NOTE)     KJ/KG-MOL      K  
 FUEL        H2                           1.0000000         0.000      0.000
 OXIDANT     H2                           1.0000000         0.000      0.000

 O/F=    1.00000  %FUEL= 50.000000  R,EQ.RATIO= 0.000000  PHI,EQ.RATIO=-1.000000

 THERMODYNAMIC PROPERTIES

 P, BAR            35.000   35.000   35.000   35.000   35.000   39.000   39.000   39.000
 T, K             3450.00  3460.00  3470.00  3480.00  3490.00  3350.00  3360.00  3370.00
 RHO, KG/CU M    2.3549-1 2.3457-1 2.3366-1 2.3274-1 2.3183-1 2.7319-1 2.7216-1 2.7113-1
 H, KJ/KG         62589.2  63017.8  63450.7  63888.0  64329.7  58109.2  58486.6  58867.6
 U, KJ/KG         47726.3  48096.9  48471.5  48850.1  49232.7  43833.6  44156.9  44483.6
 G, KJ/KG       -254482.3-255402.0-256322.9-257245.0-258168.5-243806.0-244707.8-245610.7
 S, KJ/(KG)(K)    91.9048  92.0288  92.1538  92.2796  92.4063  90.1239  90.2364  90.3497

 M, (1/n)           1.930    1.928    1.926    1.924    1.922    1.951    1.950    1.948
 (dLV/dLP)t      -1.02126 -1.02174 -1.02222 -1.02271 -1.02321 -1.01604 -1.01643 -1.01682
 (dLV/dLT)p        1.3420   1.3487   1.3554   1.3623   1.3691   1.2655   1.2711   1.2768
 Cp, KJ/(KG)(K)   42.6471  43.0760  43.5094  43.9470  44.3890  37.5565  37.9223  38.2922
 GAMMAs            1.1914   1.1910   1.1906   1.1901   1.1897   1.1986   1.1980   1.1974
 SON VEL,M/SEC     4208.1   4215.5   4223.0   4230.5   4238.1   4136.5   4143.3   4150.2

 TRANSPORT PROPERTIES (GASES ONLY)
   CONDUCTIVITY IN UNITS OF MILLIWATTS/(CM)(K)

 VISC,MILLIPOISE  0.53388  0.53562  0.53738  0.53914  0.54090  0.51594  0.51759  0.51925

  WITH EQUILIBRIUM REACTIONS

 Cp, KJ/(KG)(K)   42.6471  43.0760  43.5094  43.9470  44.3890  37.5565  37.9223  38.2922
 CONDUCTIVITY     47.3536  48.0401  48.7339  49.4349  50.1432  39.4943  40.0792  40.6712
 PRANDTL NUMBER    0.4808   0.4803   0.4798   0.4793   0.4788   0.4906   0.4897   0.4889

  WITH FROZEN REACTIONS

 Cp, KJ/(KG)(K)   18.9456  18.9570  18.9683  18.9796  18.9909  18.8284  18.8397  18.8511
 CONDUCTIVITY     14.5046  14.5621  14.6199  14.6778  14.7360  13.9108  13.9654  14.0202
 PRANDTL NUMBER    0.6973   0.6973   0.6972   0.6971   0.6971   0.6983   0.6983   0.6982

 MASS FRACTIONS

 *H               0.04451  0.04556  0.04662  0.04770  0.04880  0.03318  0.03401  0.03485
 *H2              0.95549  0.95444  0.95338  0.95230  0.95120  0.96682  0.96599  0.96515

  * THERMODYNAMIC PROPERTIES FITTED TO 20000.K

 NOTE. WEIGHT FRACTION OF FUEL IN TOTAL FUELS AND OF OXIDANT IN TOTAL OXIDANTS









               THERMODYNAMIC EQUILIBRIUM PROPERTIES AT ASSIGNED

                           TEMPERATURE AND PRESSURE

 CASE =                

             REACTANT                    WT FRACTION      ENERGY      TEMP
                                          (SEE NOTE)     KJ/KG-MOL      K  
 FUEL        H2                           1.0000000         0.000      0.000
 OXIDANT     H2                           1.0000000         0.000      0.000

 O/F=    1.00000  %FUEL= 50.000000  R,EQ.RATIO= 0.000000  PHI,EQ.RATIO=-1.000000

 THERMODYNAMIC PROPERTIES

 P, BAR            39.000   39.000   39.000   39.000   39.000   39.000   39.000   39.000
 T, K             3380.00  3390.00  3400.00  3410.00  3420.00  3430.00  3440.00  3450.00
 RHO, KG/CU M    2.7011-1 2.6908-1 2.6806-1 2.6704-1 2.6603-1 2.6501-1 2.6400-1 2.6299-1
 H, KJ/KG         59252.4  59641.0  60033.3  60429.5  60829.6  61233.6  61641.6  62053.6
 U, KJ/KG         44813.8  45147.4  45484.5  45825.2  46169.4  46517.3  46868.8  47224.0
 G, KJ/KG       -246514.8-247420.0-248326.4-249233.9-250142.6-251052.4-251963.5-252875.7
 S, KJ/(KG)(K)    90.4637  90.5785  90.6940  90.8104  90.9275  91.0455  91.1643  91.2839

 M, (1/n)           1.946    1.945    1.943    1.941    1.940    1.938    1.936    1.934
 (dLV/dLP)t      -1.01722 -1.01762 -1.01804 -1.01845 -1.01888 -1.01931 -1.01975 -1.02020
 (dLV/dLT)p        1.2825   1.2883   1.2942   1.3002   1.3063   1.3124   1.3186   1.3248
 Cp, KJ/(KG)(K)   38.6663  39.0446  39.4270  39.8136  40.2043  40.5992  40.9983  41.4015
 GAMMAs            1.1969   1.1964   1.1958   1.1953   1.1948   1.1943   1.1938   1.1934
 SON VEL,M/SEC     4157.1   4164.1   4171.1   4178.1   4185.2   4192.4   4199.6   4206.8

 TRANSPORT PROPERTIES (GASES ONLY)
   CONDUCTIVITY IN UNITS OF MILLIWATTS/(CM)(K)

 VISC,MILLIPOISE  0.52091  0.52259  0.52426  0.52595  0.52764  0.52935  0.53106  0.53277

  WITH EQUILIBRIUM REACTIONS

 Cp, KJ/(KG)(K)   38.6663  39.0446  39.4270  39.8136  40.2043  40.5992  40.9983  41.4015
 CONDUCTIVITY     41.2704  41.8768  42.4904  43.1111  43.7389  44.3739  45.0160  45.6652
 PRANDTL NUMBER    0.4880   0.4872   0.4865   0.4857   0.4850   0.4843   0.4837   0.4830

  WITH FROZEN REACTIONS

 Cp, KJ/(KG)(K)   18.8624  18.8738  18.8851  18.8964  18.9077  18.9190  18.9303  18.9415
 CONDUCTIVITY     14.0752  14.1305  14.1860  14.2417  14.2977  14.3539  14.4103  14.4669
 PRANDTL NUMBER    0.6981   0.6980   0.6979   0.6978   0.6978   0.6977   0.6976   0.6976

 MASS FRACTIONS

 *H               0.03571  0.03658  0.03747  0.03838  0.03930  0.04024  0.04120  0.04217
 *H2              0.96429  0.96342  0.96253  0.96162  0.96070  0.95976  0.95880  0.95783

  * THERMODYNAMIC PROPERTIES FITTED TO 20000.K

 NOTE. WEIGHT FRACTION OF FUEL IN TOTAL FUELS AND OF OXIDANT IN TOTAL OXIDANTS









               THERMODYNAMIC EQUILIBRIUM PROPERTIES AT ASSIGNED

                           TEMPERATURE AND PRESSURE

 CASE =                

             REACTANT                    WT FRACTION      ENERGY      TEMP
                                          (SEE NOTE)     KJ/KG-MOL      K  
 FUEL        H2                           1.0000000         0.000      0.000
 OXIDANT     H2                           1.0000000         0.000      0.000

 O/F=    1.00000  %FUEL= 50.000000  R,EQ.RATIO= 0.000000  PHI,EQ.RATIO=-1.000000

 THERMODYNAMIC PROPERTIES

 P, BAR            39.000   39.000   39.000   39.000   44.000   44.000   44.000   44.000
 T, K             3460.00  3470.00  3480.00  3490.00  3350.00  3360.00  3370.00  3380.00
 RHO, KG/CU M    2.6198-1 2.6097-1 2.5997-1 2.5896-1 3.0880-1 3.0765-1 3.0650-1 3.0535-1
 H, KJ/KG         62469.7  62889.8  63314.1  63742.5  57665.4  58031.7  58401.5  58774.8
 U, KJ/KG         47582.9  47945.6  48312.1  48682.5  43416.6  43729.6  44045.8  44365.3
 G, KJ/KG       -253789.2-254703.8-255619.7-256536.8-242085.6-242980.9-243877.3-244774.9
 S, KJ/(KG)(K)    91.4043  91.5255  91.6476  91.7706  89.4779  89.5871  89.6970  89.8076

 M, (1/n)           1.932    1.931    1.929    1.927    1.955    1.953    1.952    1.950
 (dLV/dLP)t      -1.02065 -1.02111 -1.02158 -1.02205 -1.01513 -1.01550 -1.01587 -1.01625
 (dLV/dLT)p        1.3312   1.3376   1.3441   1.3507   1.2505   1.2558   1.2612   1.2666
 Cp, KJ/(KG)(K)   41.8088  42.2203  42.6360  43.0558  36.4600  36.8052  37.1544  37.5074
 GAMMAs            1.1929   1.1925   1.1920   1.1916   1.2009   1.2003   1.1997   1.1992
 SON VEL,M/SEC     4214.1   4221.4   4228.8   4236.2   4136.6   4143.3   4150.1   4156.9

 TRANSPORT PROPERTIES (GASES ONLY)
   CONDUCTIVITY IN UNITS OF MILLIWATTS/(CM)(K)

 VISC,MILLIPOISE  0.53450  0.53623  0.53797  0.53971  0.51499  0.51661  0.51825  0.51989

  WITH EQUILIBRIUM REACTIONS

 Cp, KJ/(KG)(K)   41.8088  42.2203  42.6360  43.0558  36.4600  36.8052  37.1544  37.5074
 CONDUCTIVITY     46.3215  46.9848  47.6552  48.3327  38.0132  38.5687  39.1311  39.7004
 PRANDTL NUMBER    0.4824   0.4819   0.4813   0.4808   0.4939   0.4930   0.4921   0.4912

  WITH FROZEN REACTIONS

 Cp, KJ/(KG)(K)   18.9528  18.9640  18.9753  18.9865  18.8248  18.8361  18.8474  18.8586
 CONDUCTIVITY     14.5238  14.5809  14.6382  14.6957  13.8773  13.9312  13.9853  14.0396
 PRANDTL NUMBER    0.6975   0.6974   0.6974   0.6973   0.6986   0.6985   0.6984   0.6983

 MASS FRACTIONS

 *H               0.04316  0.04417  0.04519  0.04623  0.03124  0.03202  0.03282  0.03362
 *H2              0.95684  0.95583  0.95481  0.95377  0.96876  0.96798  0.96718  0.96638

  * THERMODYNAMIC PROPERTIES FITTED TO 20000.K

 NOTE. WEIGHT FRACTION OF FUEL IN TOTAL FUELS AND OF OXIDANT IN TOTAL OXIDANTS









               THERMODYNAMIC EQUILIBRIUM PROPERTIES AT ASSIGNED

                           TEMPERATURE AND PRESSURE

 CASE =                

             REACTANT                    WT FRACTION      ENERGY      TEMP
                                          (SEE NOTE)     KJ/KG-MOL      K  
 FUEL        H2                           1.0000000         0.000      0.000
 OXIDANT     H2                           1.0000000         0.000      0.000

 O/F=    1.00000  %FUEL= 50.000000  R,EQ.RATIO= 0.000000  PHI,EQ.RATIO=-1.000000

 THERMODYNAMIC PROPERTIES

 P, BAR            44.000   44.000   44.000   44.000   44.000   44.000   44.000   44.000
 T, K             3390.00  3400.00  3410.00  3420.00  3430.00  3440.00  3450.00  3460.00
 RHO, KG/CU M    3.0421-1 3.0307-1 3.0193-1 3.0080-1 2.9966-1 2.9853-1 2.9741-1 2.9628-1
 H, KJ/KG         59151.7  59532.1  59916.2  60304.0  60695.4  61090.6  61489.6  61892.4
 U, KJ/KG         44688.0  45014.0  45343.4  45676.2  46012.3  46351.9  46695.0  47041.7
 G, KJ/KG       -245673.5-246573.2-247474.1-248376.1-249279.3-250183.6-251089.0-251995.6
 S, KJ/(KG)(K)    89.9189  90.0310  90.1438  90.2573  90.3716  90.4867  90.6025  90.7191

 M, (1/n)           1.949    1.947    1.946    1.944    1.942    1.941    1.939    1.937
 (dLV/dLP)t      -1.01663 -1.01702 -1.01742 -1.01782 -1.01823 -1.01864 -1.01906 -1.01949
 (dLV/dLT)p        1.2721   1.2777   1.2833   1.2890   1.2948   1.3007   1.3067   1.3127
 Cp, KJ/(KG)(K)   37.8644  38.2253  38.5902  38.9590  39.3317  39.7084  40.0890  40.4735
 GAMMAs            1.1986   1.1981   1.1976   1.1970   1.1965   1.1960   1.1956   1.1951
 SON VEL,M/SEC     4163.7   4170.6   4177.5   4184.5   4191.5   4198.6   4205.7   4212.8

 TRANSPORT PROPERTIES (GASES ONLY)
   CONDUCTIVITY IN UNITS OF MILLIWATTS/(CM)(K)

 VISC,MILLIPOISE  0.52154  0.52320  0.52486  0.52653  0.52821  0.52990  0.53159  0.53329

  WITH EQUILIBRIUM REACTIONS

 Cp, KJ/(KG)(K)   37.8644  38.2253  38.5902  38.9590  39.3317  39.7084  40.0890  40.4735
 CONDUCTIVITY     40.2765  40.8595  41.4493  42.0460  42.6496  43.2600  43.8772  44.5012
 PRANDTL NUMBER    0.4903   0.4895   0.4887   0.4879   0.4871   0.4864   0.4857   0.4850

  WITH FROZEN REACTIONS

 Cp, KJ/(KG)(K)   18.8699  18.8811  18.8924  18.9036  18.9148  18.9260  18.9372  18.9484
 CONDUCTIVITY     14.0942  14.1490  14.2040  14.2593  14.3148  14.3705  14.4265  14.4826
 PRANDTL NUMBER    0.6983   0.6982   0.6981   0.6980   0.6980   0.6979   0.6978   0.6977

 MASS FRACTIONS

 *H               0.03445  0.03528  0.03614  0.03701  0.03789  0.03879  0.03971  0.04064
 *H2              0.96555  0.96472  0.96386  0.96299  0.96211  0.96121  0.96029  0.95936

  * THERMODYNAMIC PROPERTIES FITTED TO 20000.K

 NOTE. WEIGHT FRACTION OF FUEL IN TOTAL FUELS AND OF OXIDANT IN TOTAL OXIDANTS









               THERMODYNAMIC EQUILIBRIUM PROPERTIES AT ASSIGNED

                           TEMPERATURE AND PRESSURE

 CASE =                

             REACTANT                    WT FRACTION      ENERGY      TEMP
                                          (SEE NOTE)     KJ/KG-MOL      K  
 FUEL        H2                           1.0000000         0.000      0.000
 OXIDANT     H2                           1.0000000         0.000      0.000

 O/F=    1.00000  %FUEL= 50.000000  R,EQ.RATIO= 0.000000  PHI,EQ.RATIO=-1.000000

 THERMODYNAMIC PROPERTIES

 P, BAR            44.000   44.000   44.000   49.000   49.000   49.000   49.000   49.000
 T, K             3470.00  3480.00  3490.00  3350.00  3360.00  3370.00  3380.00  3390.00
 RHO, KG/CU M    2.9516-1 2.9404-1 2.9292-1 3.4443-1 3.4316-1 3.4190-1 3.4063-1 3.3937-1
 H, KJ/KG         62299.1  62709.7  63124.2  57291.4  57648.4  58008.7  58372.3  58739.3
 U, KJ/KG         47391.8  47745.6  48103.0  43065.2  43369.5  43676.8  43987.2  44300.8
 G, KJ/KG       -252903.4-253812.3-254722.5-240553.2-241442.8-242333.5-243225.3-244118.1
 S, KJ/(KG)(K)    90.8364  90.9546  91.0735  88.9088  89.0152  89.1223  89.2301  89.3385

 M, (1/n)           1.935    1.934    1.932    1.958    1.957    1.955    1.954    1.952
 (dLV/dLP)t      -1.01993 -1.02037 -1.02082 -1.01437 -1.01471 -1.01507 -1.01542 -1.01579
 (dLV/dLT)p        1.3188   1.3249   1.3311   1.2378   1.2428   1.2479   1.2531   1.2583
 Cp, KJ/(KG)(K)   40.8619  41.2543  41.6506  35.5355  35.8633  36.1949  36.5302  36.8692
 GAMMAs            1.1946   1.1942   1.1937   1.2030   1.2024   1.2018   1.2012   1.2007
 SON VEL,M/SEC     4220.0   4227.2   4234.5   4136.9   4143.5   4150.2   4156.9   4163.6

 TRANSPORT PROPERTIES (GASES ONLY)
   CONDUCTIVITY IN UNITS OF MILLIWATTS/(CM)(K)

 VISC,MILLIPOISE  0.53500  0.53672  0.53844  0.51417  0.51578  0.51740  0.51902  0.52065

  WITH EQUILIBRIUM REACTIONS

 Cp, KJ/(KG)(K)   40.8619  41.2543  41.6506  35.5355  35.8633  36.1949  36.5302  36.8692
 CONDUCTIVITY     45.1321  45.7697  46.4141  36.7597  37.2903  37.8275  38.3712  38.9215
 PRANDTL NUMBER    0.4844   0.4838   0.4832   0.4970   0.4960   0.4951   0.4941   0.4932

  WITH FROZEN REACTIONS

 Cp, KJ/(KG)(K)   18.9596  18.9707  18.9819  18.8217  18.8330  18.8442  18.8554  18.8666
 CONDUCTIVITY     14.5390  14.5956  14.6524  13.8487  13.9019  13.9554  14.0092  14.0631
 PRANDTL NUMBER    0.6977   0.6976   0.6975   0.6988   0.6987   0.6986   0.6986   0.6985

 MASS FRACTIONS

 *H               0.04159  0.04255  0.04353  0.02961  0.03035  0.03110  0.03186  0.03264
 *H2              0.95841  0.95745  0.95647  0.97039  0.96965  0.96890  0.96814  0.96736

  * THERMODYNAMIC PROPERTIES FITTED TO 20000.K

 NOTE. WEIGHT FRACTION OF FUEL IN TOTAL FUELS AND OF OXIDANT IN TOTAL OXIDANTS









               THERMODYNAMIC EQUILIBRIUM PROPERTIES AT ASSIGNED

                           TEMPERATURE AND PRESSURE

 CASE =                

             REACTANT                    WT FRACTION      ENERGY      TEMP
                                          (SEE NOTE)     KJ/KG-MOL      K  
 FUEL        H2                           1.0000000         0.000      0.000
 OXIDANT     H2                           1.0000000         0.000      0.000

 O/F=    1.00000  %FUEL= 50.000000  R,EQ.RATIO= 0.000000  PHI,EQ.RATIO=-1.000000

 THERMODYNAMIC PROPERTIES

 P, BAR            49.000   49.000   49.000   49.000   49.000   49.000   49.000   49.000
 T, K             3400.00  3410.00  3420.00  3430.00  3440.00  3450.00  3460.00  3470.00
 RHO, KG/CU M    3.3811-1 3.3686-1 3.3561-1 3.3436-1 3.3311-1 3.3187-1 3.3063-1 3.2939-1
 H, KJ/KG         59109.7  59483.5  59860.9  60241.7  60626.1  61014.1  61405.8  61801.1
 U, KJ/KG         44617.5  44937.3  45260.4  45586.7  45916.3  46249.1  46585.4  46925.0
 G, KJ/KG       -245012.1-245907.1-246803.2-247700.4-248598.8-249498.3-250398.9-251300.6
 S, KJ/(KG)(K)    89.4476  89.5574  89.6679  89.7791  89.8910  90.0036  90.1170  90.2310

 M, (1/n)           1.951    1.949    1.948    1.946    1.944    1.943    1.941    1.939
 (dLV/dLP)t      -1.01616 -1.01654 -1.01692 -1.01731 -1.01770 -1.01811 -1.01851 -1.01893
 (dLV/dLT)p        1.2636   1.2690   1.2745   1.2800   1.2856   1.2912   1.2970   1.3028
 Cp, KJ/(KG)(K)   37.2120  37.5585  37.9088  38.2627  38.6205  38.9820  39.3472  39.7161
 GAMMAs            1.2001   1.1996   1.1990   1.1985   1.1980   1.1975   1.1970   1.1966
 SON VEL,M/SEC     4170.4   4177.2   4184.1   4191.0   4197.9   4204.9   4212.0   4219.0

 TRANSPORT PROPERTIES (GASES ONLY)
   CONDUCTIVITY IN UNITS OF MILLIWATTS/(CM)(K)

 VISC,MILLIPOISE  0.52229  0.52393  0.52558  0.52724  0.52891  0.53058  0.53226  0.53395

  WITH EQUILIBRIUM REACTIONS

 Cp, KJ/(KG)(K)   37.2120  37.5585  37.9088  38.2627  38.6205  38.9820  39.3472  39.7161
 CONDUCTIVITY     39.4784  40.0420  40.6121  41.1888  41.7721  42.3620  42.9585  43.5615
 PRANDTL NUMBER    0.4923   0.4914   0.4906   0.4898   0.4890   0.4882   0.4875   0.4868

  WITH FROZEN REACTIONS

 Cp, KJ/(KG)(K)   18.8778  18.8890  18.9001  18.9113  18.9224  18.9336  18.9447  18.9558
 CONDUCTIVITY     14.1173  14.1718  14.2264  14.2813  14.3364  14.3917  14.4472  14.5030
 PRANDTL NUMBER    0.6984   0.6983   0.6983   0.6982   0.6981   0.6980   0.6980   0.6979

 MASS FRACTIONS

 *H               0.03344  0.03425  0.03507  0.03591  0.03676  0.03763  0.03851  0.03941
 *H2              0.96656  0.96575  0.96493  0.96409  0.96324  0.96237  0.96149  0.96059

  * THERMODYNAMIC PROPERTIES FITTED TO 20000.K

 NOTE. WEIGHT FRACTION OF FUEL IN TOTAL FUELS AND OF OXIDANT IN TOTAL OXIDANTS









               THERMODYNAMIC EQUILIBRIUM PROPERTIES AT ASSIGNED

                           TEMPERATURE AND PRESSURE

 CASE =                

             REACTANT                    WT FRACTION      ENERGY      TEMP
                                          (SEE NOTE)     KJ/KG-MOL      K  
 FUEL        H2                           1.0000000         0.000      0.000
 OXIDANT     H2                           1.0000000         0.000      0.000

 O/F=    1.00000  %FUEL= 50.000000  R,EQ.RATIO= 0.000000  PHI,EQ.RATIO=-1.000000

 THERMODYNAMIC PROPERTIES

 P, BAR            49.000   49.000   54.000   54.000   54.000   54.000   54.000   54.000
 T, K             3480.00  3490.00  3350.00  3360.00  3370.00  3380.00  3390.00  3400.00
 RHO, KG/CU M    3.2815-1 3.2692-1 3.8010-1 3.7871-1 3.7732-1 3.7594-1 3.7456-1 3.7319-1
 H, KJ/KG         62200.1  62602.9  56970.5  57319.5  57671.7  58027.0  58385.5  58747.3
 U, KJ/KG         47268.0  47614.5  42763.7  43060.6  43360.3  43663.0  43968.6  44277.3
 G, KJ/KG       -252203.5-253107.5-239171.9-240056.4-240942.0-241828.6-242716.3-243605.0
 S, KJ/(KG)(K)    90.3459  90.4614  88.4007  88.5047  88.6094  88.7147  88.8206  88.9271

 M, (1/n)           1.938    1.936    1.961    1.959    1.958    1.956    1.955    1.954
 (dLV/dLP)t      -1.01935 -1.01978 -1.01371 -1.01404 -1.01437 -1.01472 -1.01506 -1.01542
 (dLV/dLT)p        1.3086   1.3146   1.2268   1.2317   1.2365   1.2415   1.2465   1.2516
 Cp, KJ/(KG)(K)   40.0888  40.4652  34.7423  35.0552  35.3716  35.6917  36.0153  36.3424
 GAMMAs            1.1961   1.1956   1.2049   1.2042   1.2037   1.2031   1.2025   1.2019
 SON VEL,M/SEC     4226.1   4233.3   4137.3   4143.8   4150.4   4157.0   4163.7   4170.4

 TRANSPORT PROPERTIES (GASES ONLY)
   CONDUCTIVITY IN UNITS OF MILLIWATTS/(CM)(K)

 VISC,MILLIPOISE  0.53564  0.53735  0.51346  0.51506  0.51666  0.51826  0.51988  0.52150

  WITH EQUILIBRIUM REACTIONS

 Cp, KJ/(KG)(K)   40.0888  40.4652  34.7423  35.0552  35.3716  35.6917  36.0153  36.3424
 CONDUCTIVITY     44.1711  44.7873  35.6808  36.1898  36.7051  37.2267  37.7547  38.2891
 PRANDTL NUMBER    0.4861   0.4855   0.5000   0.4989   0.4979   0.4969   0.4959   0.4950

  WITH FROZEN REACTIONS

 Cp, KJ/(KG)(K)   18.9669  18.9780  18.8191  18.8303  18.8415  18.8527  18.8638  18.8749
 CONDUCTIVITY     14.5590  14.6152  13.8238  13.8765  13.9295  13.9827  14.0361  14.0898
 PRANDTL NUMBER    0.6978   0.6978   0.6990   0.6989   0.6988   0.6988   0.6987   0.6986

 MASS FRACTIONS

 *H               0.04033  0.04126  0.02821  0.02891  0.02962  0.03035  0.03110  0.03185
 *H2              0.95967  0.95874  0.97179  0.97109  0.97038  0.96965  0.96890  0.96815

  * THERMODYNAMIC PROPERTIES FITTED TO 20000.K

 NOTE. WEIGHT FRACTION OF FUEL IN TOTAL FUELS AND OF OXIDANT IN TOTAL OXIDANTS









               THERMODYNAMIC EQUILIBRIUM PROPERTIES AT ASSIGNED

                           TEMPERATURE AND PRESSURE

 CASE =                

             REACTANT                    WT FRACTION      ENERGY      TEMP
                                          (SEE NOTE)     KJ/KG-MOL      K  
 FUEL        H2                           1.0000000         0.000      0.000
 OXIDANT     H2                           1.0000000         0.000      0.000

 O/F=    1.00000  %FUEL= 50.000000  R,EQ.RATIO= 0.000000  PHI,EQ.RATIO=-1.000000

 THERMODYNAMIC PROPERTIES

 P, BAR            54.000   54.000   54.000   54.000   54.000   54.000   54.000   54.000
 T, K             3410.00  3420.00  3430.00  3440.00  3450.00  3460.00  3470.00  3480.00
 RHO, KG/CU M    3.7181-1 3.7044-1 3.6908-1 3.6772-1 3.6636-1 3.6500-1 3.6365-1 3.6230-1
 H, KJ/KG         59112.4  59480.8  59852.5  60227.7  60606.3  60988.3  61373.9  61763.0
 U, KJ/KG         44588.9  44903.7  45221.5  45542.5  45866.6  46194.0  46524.5  46858.3
 G, KJ/KG       -244494.8-245385.7-246277.7-247170.7-248064.9-248960.1-249856.5-250754.0
 S, KJ/(KG)(K)    89.0344  89.1422  89.2508  89.3600  89.4699  89.5805  89.6918  89.8037

 M, (1/n)           1.952    1.951    1.949    1.948    1.946    1.945    1.943    1.941
 (dLV/dLP)t      -1.01578 -1.01615 -1.01652 -1.01690 -1.01728 -1.01767 -1.01807 -1.01847
 (dLV/dLT)p        1.2567   1.2619   1.2672   1.2725   1.2780   1.2834   1.2890   1.2946
 Cp, KJ/(KG)(K)   36.6732  37.0075  37.3454  37.6868  38.0319  38.3805  38.7327  39.0884
 GAMMAs            1.2014   1.2009   1.2003   1.1998   1.1993   1.1988   1.1983   1.1978
 SON VEL,M/SEC     4177.1   4183.9   4190.7   4197.6   4204.4   4211.4   4218.3   4225.3

 TRANSPORT PROPERTIES (GASES ONLY)
   CONDUCTIVITY IN UNITS OF MILLIWATTS/(CM)(K)

 VISC,MILLIPOISE  0.52312  0.52476  0.52640  0.52805  0.52970  0.53137  0.53304  0.53471

  WITH EQUILIBRIUM REACTIONS

 Cp, KJ/(KG)(K)   36.6732  37.0075  37.3454  37.6868  38.0319  38.3805  38.7327  39.0884
 CONDUCTIVITY     38.8298  39.3769  39.9304  40.4902  41.0564  41.6290  42.2079  42.7932
 PRANDTL NUMBER    0.4941   0.4932   0.4923   0.4915   0.4907   0.4899   0.4891   0.4884

  WITH FROZEN REACTIONS

 Cp, KJ/(KG)(K)   18.8861  18.8972  18.9083  18.9194  18.9304  18.9415  18.9526  18.9636
 CONDUCTIVITY     14.1436  14.1977  14.2521  14.3066  14.3614  14.4164  14.4716  14.5270
 PRANDTL NUMBER    0.6985   0.6985   0.6984   0.6983   0.6982   0.6982   0.6981   0.6980

 MASS FRACTIONS

 *H               0.03262  0.03341  0.03421  0.03502  0.03585  0.03669  0.03755  0.03842
 *H2              0.96738  0.96659  0.96579  0.96498  0.96415  0.96331  0.96245  0.96158

  * THERMODYNAMIC PROPERTIES FITTED TO 20000.K

 NOTE. WEIGHT FRACTION OF FUEL IN TOTAL FUELS AND OF OXIDANT IN TOTAL OXIDANTS









               THERMODYNAMIC EQUILIBRIUM PROPERTIES AT ASSIGNED

                           TEMPERATURE AND PRESSURE

 CASE =                

             REACTANT                    WT FRACTION      ENERGY      TEMP
                                          (SEE NOTE)     KJ/KG-MOL      K  
 FUEL        H2                           1.0000000         0.000      0.000
 OXIDANT     H2                           1.0000000         0.000      0.000

 O/F=    1.00000  %FUEL= 50.000000  R,EQ.RATIO= 0.000000  PHI,EQ.RATIO=-1.000000

 THERMODYNAMIC PROPERTIES

 P, BAR            54.000
 T, K             3490.00
 RHO, KG/CU M    3.6096-1
 H, KJ/KG         62155.7
 U, KJ/KG         47195.4
 G, KJ/KG       -251652.6
 S, KJ/(KG)(K)    89.9164

 M, (1/n)           1.940
 (dLV/dLP)t      -1.01888
 (dLV/dLT)p        1.3003
 Cp, KJ/(KG)(K)   39.4478
 GAMMAs            1.1974
 SON VEL,M/SEC     4232.4

 TRANSPORT PROPERTIES (GASES ONLY)
   CONDUCTIVITY IN UNITS OF MILLIWATTS/(CM)(K)

 VISC,MILLIPOISE  0.53640

  WITH EQUILIBRIUM REACTIONS

 Cp, KJ/(KG)(K)   39.4478
 CONDUCTIVITY     43.3848
 PRANDTL NUMBER    0.4877

  WITH FROZEN REACTIONS

 Cp, KJ/(KG)(K)   18.9746
 CONDUCTIVITY     14.5826
 PRANDTL NUMBER    0.6979

 MASS FRACTIONS

 *H               0.03930
 *H2              0.96070

  * THERMODYNAMIC PROPERTIES FITTED TO 20000.K

 NOTE. WEIGHT FRACTION OF FUEL IN TOTAL FUELS AND OF OXIDANT IN TOTAL OXIDANTS



  
