
 *******************************************************************************

         NASA-GLENN CHEMICAL EQUILIBRIUM PROGRAM CEA2, MAY 21, 2004
                   BY  BONNIE MCBRIDE AND SANFORD GORDON
      REFS: NASA RP-1311, PART I, 1994 AND NASA RP-1311, PART II, 1996

 *******************************************************************************



  prob tp
  p,bar= 10.0,12.5,15.0,20.0,25.0,30.0,40.0,50.0,62.5,80.0,100.0,125.0,150.0,200.
 0,250.0,300.0,400.0,500.0,625.0,800.0
  t,k= 300,310,320,330,340,350,360,370,380,390,400,410,420,430,440,450,460,470,48
 0,490
  
  
  reac
  fuel H2                wt%=100.0000
  oxid H2                wt%=100.0000
  
  output short
  
  output massf
  
  output siunits
  
  output transport
  
 end





               THERMODYNAMIC EQUILIBRIUM PROPERTIES AT ASSIGNED

                           TEMPERATURE AND PRESSURE

 CASE =                

             REACTANT                    WT FRACTION      ENERGY      TEMP
                                          (SEE NOTE)     KJ/KG-MOL      K  
 FUEL        H2                           1.0000000         0.000      0.000
 OXIDANT     H2                           1.0000000         0.000      0.000

 O/F=    1.00000  %FUEL= 50.000000  R,EQ.RATIO= 0.000000  PHI,EQ.RATIO=-1.000000

 THERMODYNAMIC PROPERTIES

 P, BAR            10.000   10.000   10.000   10.000   10.000   10.000   10.000   10.000
 T, K              300.00   310.00   320.00   330.00   340.00   350.00   360.00   370.00
 RHO, KG/CU M    8.0818-1 7.8211-1 7.5767-1 7.3471-1 7.1310-1 6.9272-1 6.7348-1 6.5528-1
 H, KJ/KG          26.469   169.74   313.30   457.11   601.14   745.34   889.70  1034.19
 U, KJ/KG        -1210.88 -1108.86 -1006.54  -903.98  -801.20  -698.24  -595.12  -491.88
 G, KJ/KG        -16598.7 -17155.2 -17716.4 -18282.1 -18852.1 -19426.3 -20004.7 -20587.1
 S, KJ/(KG)(K)    55.4173  55.8870  56.3428  56.7854  57.2153  57.6333  58.0400  58.4359

 M, (1/n)           2.016    2.016    2.016    2.016    2.016    2.016    2.016    2.016
 (dLV/dLP)t      -1.00000 -1.00000 -1.00000 -1.00000 -1.00000 -1.00000 -1.00000 -1.00000
 (dLV/dLT)p        1.0000   1.0000   1.0000   1.0000   1.0000   1.0000   1.0000   1.0000
 Cp, KJ/(KG)(K)   14.3109  14.3423  14.3693  14.3923  14.4120  14.4286  14.4427  14.4545
 GAMMAs            1.4049   1.4037   1.4026   1.4017   1.4009   1.4003   1.3997   1.3993
 SON VEL,M/SEC     1318.5   1339.7   1360.6   1381.2   1401.6   1421.8   1441.6   1461.3

 TRANSPORT PROPERTIES (GASES ONLY)
   CONDUCTIVITY IN UNITS OF MILLIWATTS/(CM)(K)

 VISC,MILLIPOISE  0.08974  0.09174  0.09372  0.09568  0.09763  0.09955  0.10146  0.10336

  WITH EQUILIBRIUM REACTIONS

 Cp, KJ/(KG)(K)   14.3109  14.3423  14.3693  14.3923  14.4120  14.4286  14.4427  14.4545
 CONDUCTIVITY      1.8781   1.9236   1.9680   2.0115   2.0541   2.0960   2.1373   2.1779
 PRANDTL NUMBER    0.6838   0.6840   0.6843   0.6846   0.6850   0.6853   0.6856   0.6860

  WITH FROZEN REACTIONS

 Cp, KJ/(KG)(K)   14.3109  14.3423  14.3693  14.3923  14.4120  14.4286  14.4427  14.4545
 CONDUCTIVITY      1.8781   1.9236   1.9680   2.0115   2.0541   2.0960   2.1373   2.1779
 PRANDTL NUMBER    0.6838   0.6840   0.6843   0.6846   0.6850   0.6853   0.6856   0.6860

 MASS FRACTIONS

 *H2              1.00000  1.00000  1.00000  1.00000  1.00000  1.00000  1.00000  1.00000

  * THERMODYNAMIC PROPERTIES FITTED TO 20000.K

 NOTE. WEIGHT FRACTION OF FUEL IN TOTAL FUELS AND OF OXIDANT IN TOTAL OXIDANTS









               THERMODYNAMIC EQUILIBRIUM PROPERTIES AT ASSIGNED

                           TEMPERATURE AND PRESSURE

 CASE =                

             REACTANT                    WT FRACTION      ENERGY      TEMP
                                          (SEE NOTE)     KJ/KG-MOL      K  
 FUEL        H2                           1.0000000         0.000      0.000
 OXIDANT     H2                           1.0000000         0.000      0.000

 O/F=    1.00000  %FUEL= 50.000000  R,EQ.RATIO= 0.000000  PHI,EQ.RATIO=-1.000000

 THERMODYNAMIC PROPERTIES

 P, BAR            10.000   10.000   10.000   10.000   10.000   10.000   10.000   10.000
 T, K              380.00   390.00   400.00   410.00   420.00   430.00   440.00   450.00
 RHO, KG/CU M    6.3803-1 6.2167-1 6.0613-1 5.9135-1 5.7727-1 5.6384-1 5.5103-1 5.3878-1
 H, KJ/KG         1178.78  1323.47  1468.23  1613.06  1757.93  1902.85  2047.81  2192.80
 U, KJ/KG         -388.53  -285.09  -181.57  -77.991   25.640   129.32   233.03   336.77
 G, KJ/KG        -21173.4 -21763.5 -22357.3 -22954.7 -23555.7 -24160.1 -24767.9 -25379.0
 S, KJ/(KG)(K)    58.8215  59.1973  59.5638  59.9214  60.2706  60.6116  60.9448  61.2706

 M, (1/n)           2.016    2.016    2.016    2.016    2.016    2.016    2.016    2.016
 (dLV/dLP)t      -1.00000 -1.00000 -1.00000 -1.00000 -1.00000 -1.00000 -1.00000 -1.00000
 (dLV/dLT)p        1.0000   1.0000   1.0000   1.0000   1.0000   1.0000   1.0000   1.0000
 Cp, KJ/(KG)(K)   14.4644  14.4726  14.4795  14.4852  14.4900  14.4939  14.4973  14.5002
 GAMMAs            1.3989   1.3986   1.3983   1.3981   1.3979   1.3978   1.3976   1.3975
 SON VEL,M/SEC     1480.7   1499.9   1518.9   1537.6   1556.1   1574.5   1592.6   1610.5

 TRANSPORT PROPERTIES (GASES ONLY)
   CONDUCTIVITY IN UNITS OF MILLIWATTS/(CM)(K)

 VISC,MILLIPOISE  0.10524  0.10710  0.10895  0.11079  0.11262  0.11443  0.11623  0.11803

  WITH EQUILIBRIUM REACTIONS

 Cp, KJ/(KG)(K)   14.4644  14.4726  14.4795  14.4852  14.4900  14.4939  14.4973  14.5002
 CONDUCTIVITY      2.2180   2.2576   2.2969   2.3357   2.3742   2.4124   2.4503   2.4880
 PRANDTL NUMBER    0.6863   0.6866   0.6868   0.6871   0.6873   0.6875   0.6877   0.6879

  WITH FROZEN REACTIONS

 Cp, KJ/(KG)(K)   14.4644  14.4726  14.4795  14.4852  14.4900  14.4939  14.4973  14.5002
 CONDUCTIVITY      2.2180   2.2576   2.2969   2.3357   2.3742   2.4124   2.4503   2.4880
 PRANDTL NUMBER    0.6863   0.6866   0.6868   0.6871   0.6873   0.6875   0.6877   0.6879

 MASS FRACTIONS

 *H2              1.00000  1.00000  1.00000  1.00000  1.00000  1.00000  1.00000  1.00000

  * THERMODYNAMIC PROPERTIES FITTED TO 20000.K

 NOTE. WEIGHT FRACTION OF FUEL IN TOTAL FUELS AND OF OXIDANT IN TOTAL OXIDANTS









               THERMODYNAMIC EQUILIBRIUM PROPERTIES AT ASSIGNED

                           TEMPERATURE AND PRESSURE

 CASE =                

             REACTANT                    WT FRACTION      ENERGY      TEMP
                                          (SEE NOTE)     KJ/KG-MOL      K  
 FUEL        H2                           1.0000000         0.000      0.000
 OXIDANT     H2                           1.0000000         0.000      0.000

 O/F=    1.00000  %FUEL= 50.000000  R,EQ.RATIO= 0.000000  PHI,EQ.RATIO=-1.000000

 THERMODYNAMIC PROPERTIES

 P, BAR            10.000   10.000   10.000   10.000   12.500   12.500   12.500   12.500
 T, K              460.00   470.00   480.00   490.00   300.00   310.00   320.00   330.00
 RHO, KG/CU M    5.2707-1 5.1586-1 5.0511-1 4.9480-1 1.0102 0 9.7763-1 9.4708-1 9.1838-1
 H, KJ/KG         2337.81  2482.85  2627.91  2773.00   26.469   169.74   313.30   457.11
 U, KJ/KG          440.54   544.33   648.15   751.99 -1210.88 -1108.86 -1006.54  -903.98
 G, KJ/KG        -25993.3 -26610.8 -27231.3 -27854.9 -16322.6 -16869.9 -17421.9 -17978.3
 S, KJ/(KG)(K)    61.5894  61.9013  62.2067  62.5058  54.4969  54.9667  55.4225  55.8650

 M, (1/n)           2.016    2.016    2.016    2.016    2.016    2.016    2.016    2.016
 (dLV/dLP)t      -1.00000 -1.00000 -1.00000 -1.00000 -1.00000 -1.00000 -1.00000 -1.00000
 (dLV/dLT)p        1.0000   1.0000   1.0000   1.0000   1.0000   1.0000   1.0000   1.0000
 Cp, KJ/(KG)(K)   14.5028  14.5051  14.5073  14.5094  14.3109  14.3423  14.3693  14.3923
 GAMMAs            1.3974   1.3973   1.3972   1.3972   1.4049   1.4037   1.4026   1.4017
 SON VEL,M/SEC     1628.3   1645.8   1663.2   1680.4   1318.5   1339.7   1360.6   1381.2

 TRANSPORT PROPERTIES (GASES ONLY)
   CONDUCTIVITY IN UNITS OF MILLIWATTS/(CM)(K)

 VISC,MILLIPOISE  0.11981  0.12158  0.12334  0.12509  0.08974  0.09174  0.09372  0.09568

  WITH EQUILIBRIUM REACTIONS

 Cp, KJ/(KG)(K)   14.5028  14.5051  14.5073  14.5094  14.3109  14.3423  14.3693  14.3923
 CONDUCTIVITY      2.5254   2.5626   2.5997   2.6365   1.8781   1.9236   1.9680   2.0115
 PRANDTL NUMBER    0.6880   0.6882   0.6883   0.6884   0.6838   0.6840   0.6843   0.6846

  WITH FROZEN REACTIONS

 Cp, KJ/(KG)(K)   14.5028  14.5051  14.5073  14.5094  14.3109  14.3423  14.3693  14.3923
 CONDUCTIVITY      2.5254   2.5626   2.5997   2.6365   1.8781   1.9236   1.9680   2.0115
 PRANDTL NUMBER    0.6880   0.6882   0.6883   0.6884   0.6838   0.6840   0.6843   0.6846

 MASS FRACTIONS

 *H2              1.00000  1.00000  1.00000  1.00000  1.00000  1.00000  1.00000  1.00000

  * THERMODYNAMIC PROPERTIES FITTED TO 20000.K

 NOTE. WEIGHT FRACTION OF FUEL IN TOTAL FUELS AND OF OXIDANT IN TOTAL OXIDANTS









               THERMODYNAMIC EQUILIBRIUM PROPERTIES AT ASSIGNED

                           TEMPERATURE AND PRESSURE

 CASE =                

             REACTANT                    WT FRACTION      ENERGY      TEMP
                                          (SEE NOTE)     KJ/KG-MOL      K  
 FUEL        H2                           1.0000000         0.000      0.000
 OXIDANT     H2                           1.0000000         0.000      0.000

 O/F=    1.00000  %FUEL= 50.000000  R,EQ.RATIO= 0.000000  PHI,EQ.RATIO=-1.000000

 THERMODYNAMIC PROPERTIES

 P, BAR            12.500   12.500   12.500   12.500   12.500   12.500   12.500   12.500
 T, K              340.00   350.00   360.00   370.00   380.00   390.00   400.00   410.00
 RHO, KG/CU M    8.9137-1 8.6590-1 8.4185-1 8.1910-1 7.9754-1 7.7709-1 7.5767-1 7.3919-1
 H, KJ/KG          601.14   745.34   889.70  1034.19  1178.78  1323.47  1468.23  1613.06
 U, KJ/KG         -801.20  -698.24  -595.12  -491.88  -388.53  -285.09  -181.57  -77.991
 G, KJ/KG        -18539.1 -19104.2 -19673.4 -20246.6 -20823.6 -21404.5 -21989.2 -22577.4
 S, KJ/(KG)(K)    56.2950  56.7130  57.1196  57.5155  57.9011  58.2770  58.6435  59.0011

 M, (1/n)           2.016    2.016    2.016    2.016    2.016    2.016    2.016    2.016
 (dLV/dLP)t      -1.00000 -1.00000 -1.00000 -1.00000 -1.00000 -1.00000 -1.00000 -1.00000
 (dLV/dLT)p        1.0000   1.0000   1.0000   1.0000   1.0000   1.0000   1.0000   1.0000
 Cp, KJ/(KG)(K)   14.4120  14.4286  14.4427  14.4545  14.4644  14.4726  14.4795  14.4852
 GAMMAs            1.4009   1.4003   1.3997   1.3993   1.3989   1.3986   1.3983   1.3981
 SON VEL,M/SEC     1401.6   1421.8   1441.6   1461.3   1480.7   1499.9   1518.9   1537.6

 TRANSPORT PROPERTIES (GASES ONLY)
   CONDUCTIVITY IN UNITS OF MILLIWATTS/(CM)(K)

 VISC,MILLIPOISE  0.09763  0.09955  0.10146  0.10336  0.10524  0.10710  0.10895  0.11079

  WITH EQUILIBRIUM REACTIONS

 Cp, KJ/(KG)(K)   14.4120  14.4286  14.4427  14.4545  14.4644  14.4726  14.4795  14.4852
 CONDUCTIVITY      2.0541   2.0960   2.1373   2.1779   2.2180   2.2576   2.2969   2.3357
 PRANDTL NUMBER    0.6850   0.6853   0.6856   0.6860   0.6863   0.6866   0.6868   0.6871

  WITH FROZEN REACTIONS

 Cp, KJ/(KG)(K)   14.4120  14.4286  14.4427  14.4545  14.4644  14.4726  14.4795  14.4852
 CONDUCTIVITY      2.0541   2.0960   2.1373   2.1779   2.2180   2.2576   2.2969   2.3357
 PRANDTL NUMBER    0.6850   0.6853   0.6856   0.6860   0.6863   0.6866   0.6868   0.6871

 MASS FRACTIONS

 *H2              1.00000  1.00000  1.00000  1.00000  1.00000  1.00000  1.00000  1.00000

  * THERMODYNAMIC PROPERTIES FITTED TO 20000.K

 NOTE. WEIGHT FRACTION OF FUEL IN TOTAL FUELS AND OF OXIDANT IN TOTAL OXIDANTS









               THERMODYNAMIC EQUILIBRIUM PROPERTIES AT ASSIGNED

                           TEMPERATURE AND PRESSURE

 CASE =                

             REACTANT                    WT FRACTION      ENERGY      TEMP
                                          (SEE NOTE)     KJ/KG-MOL      K  
 FUEL        H2                           1.0000000         0.000      0.000
 OXIDANT     H2                           1.0000000         0.000      0.000

 O/F=    1.00000  %FUEL= 50.000000  R,EQ.RATIO= 0.000000  PHI,EQ.RATIO=-1.000000

 THERMODYNAMIC PROPERTIES

 P, BAR            12.500   12.500   12.500   12.500   12.500   12.500   12.500   12.500
 T, K              420.00   430.00   440.00   450.00   460.00   470.00   480.00   490.00
 RHO, KG/CU M    7.2159-1 7.0481-1 6.8879-1 6.7348-1 6.5884-1 6.4482-1 6.3139-1 6.1850-1
 H, KJ/KG         1757.93  1902.85  2047.81  2192.80  2337.81  2482.85  2627.91  2773.00
 U, KJ/KG          25.640   129.32   233.03   336.77   440.54   544.33   648.15   751.99
 G, KJ/KG        -23169.1 -23764.4 -24362.9 -24964.8 -25569.9 -26178.2 -26789.5 -27403.9
 S, KJ/(KG)(K)    59.3502  59.6912  60.0244  60.3503  60.6690  60.9809  61.2863  61.5855

 M, (1/n)           2.016    2.016    2.016    2.016    2.016    2.016    2.016    2.016
 (dLV/dLP)t      -1.00000 -1.00000 -1.00000 -1.00000 -1.00000 -1.00000 -1.00000 -1.00000
 (dLV/dLT)p        1.0000   1.0000   1.0000   1.0000   1.0000   1.0000   1.0000   1.0000
 Cp, KJ/(KG)(K)   14.4900  14.4939  14.4973  14.5002  14.5028  14.5051  14.5073  14.5094
 GAMMAs            1.3979   1.3978   1.3976   1.3975   1.3974   1.3973   1.3972   1.3972
 SON VEL,M/SEC     1556.1   1574.5   1592.6   1610.5   1628.3   1645.8   1663.2   1680.4

 TRANSPORT PROPERTIES (GASES ONLY)
   CONDUCTIVITY IN UNITS OF MILLIWATTS/(CM)(K)

 VISC,MILLIPOISE  0.11262  0.11443  0.11623  0.11803  0.11981  0.12158  0.12334  0.12509

  WITH EQUILIBRIUM REACTIONS

 Cp, KJ/(KG)(K)   14.4900  14.4939  14.4973  14.5002  14.5028  14.5051  14.5073  14.5094
 CONDUCTIVITY      2.3742   2.4124   2.4503   2.4880   2.5254   2.5626   2.5997   2.6365
 PRANDTL NUMBER    0.6873   0.6875   0.6877   0.6879   0.6880   0.6882   0.6883   0.6884

  WITH FROZEN REACTIONS

 Cp, KJ/(KG)(K)   14.4900  14.4939  14.4973  14.5002  14.5028  14.5051  14.5073  14.5094
 CONDUCTIVITY      2.3742   2.4124   2.4503   2.4880   2.5254   2.5626   2.5997   2.6365
 PRANDTL NUMBER    0.6873   0.6875   0.6877   0.6879   0.6880   0.6882   0.6883   0.6884

 MASS FRACTIONS

 *H2              1.00000  1.00000  1.00000  1.00000  1.00000  1.00000  1.00000  1.00000

  * THERMODYNAMIC PROPERTIES FITTED TO 20000.K

 NOTE. WEIGHT FRACTION OF FUEL IN TOTAL FUELS AND OF OXIDANT IN TOTAL OXIDANTS









               THERMODYNAMIC EQUILIBRIUM PROPERTIES AT ASSIGNED

                           TEMPERATURE AND PRESSURE

 CASE =                

             REACTANT                    WT FRACTION      ENERGY      TEMP
                                          (SEE NOTE)     KJ/KG-MOL      K  
 FUEL        H2                           1.0000000         0.000      0.000
 OXIDANT     H2                           1.0000000         0.000      0.000

 O/F=    1.00000  %FUEL= 50.000000  R,EQ.RATIO= 0.000000  PHI,EQ.RATIO=-1.000000

 THERMODYNAMIC PROPERTIES

 P, BAR            15.000   15.000   15.000   15.000   15.000   15.000   15.000   15.000
 T, K              300.00   310.00   320.00   330.00   340.00   350.00   360.00   370.00
 RHO, KG/CU M    1.2123 0 1.1732 0 1.1365 0 1.1021 0 1.0696 0 1.0391 0 1.0102 0 9.8292-1
 H, KJ/KG          26.469   169.74   313.30   457.11   601.14   745.34   889.70  1034.19
 U, KJ/KG        -1210.88 -1108.86 -1006.54  -903.98  -801.20  -698.24  -595.12  -491.88
 G, KJ/KG        -16097.0 -16636.8 -17181.3 -17730.2 -18283.5 -18841.0 -19402.7 -19968.3
 S, KJ/(KG)(K)    53.7449  54.2147  54.6705  55.1130  55.5430  55.9610  56.3677  56.7635

 M, (1/n)           2.016    2.016    2.016    2.016    2.016    2.016    2.016    2.016
 (dLV/dLP)t      -1.00000 -1.00000 -1.00000 -1.00000 -1.00000 -1.00000 -1.00000 -1.00000
 (dLV/dLT)p        1.0000   1.0000   1.0000   1.0000   1.0000   1.0000   1.0000   1.0000
 Cp, KJ/(KG)(K)   14.3109  14.3423  14.3693  14.3923  14.4120  14.4286  14.4427  14.4545
 GAMMAs            1.4049   1.4037   1.4026   1.4017   1.4009   1.4003   1.3997   1.3993
 SON VEL,M/SEC     1318.5   1339.7   1360.6   1381.2   1401.6   1421.8   1441.6   1461.3

 TRANSPORT PROPERTIES (GASES ONLY)
   CONDUCTIVITY IN UNITS OF MILLIWATTS/(CM)(K)

 VISC,MILLIPOISE  0.08974  0.09174  0.09372  0.09568  0.09763  0.09955  0.10146  0.10336

  WITH EQUILIBRIUM REACTIONS

 Cp, KJ/(KG)(K)   14.3109  14.3423  14.3693  14.3923  14.4120  14.4286  14.4427  14.4545
 CONDUCTIVITY      1.8781   1.9236   1.9680   2.0115   2.0541   2.0960   2.1373   2.1779
 PRANDTL NUMBER    0.6838   0.6840   0.6843   0.6846   0.6850   0.6853   0.6856   0.6860

  WITH FROZEN REACTIONS

 Cp, KJ/(KG)(K)   14.3109  14.3423  14.3693  14.3923  14.4120  14.4286  14.4427  14.4545
 CONDUCTIVITY      1.8781   1.9236   1.9680   2.0115   2.0541   2.0960   2.1373   2.1779
 PRANDTL NUMBER    0.6838   0.6840   0.6843   0.6846   0.6850   0.6853   0.6856   0.6860

 MASS FRACTIONS

 *H2              1.00000  1.00000  1.00000  1.00000  1.00000  1.00000  1.00000  1.00000

  * THERMODYNAMIC PROPERTIES FITTED TO 20000.K

 NOTE. WEIGHT FRACTION OF FUEL IN TOTAL FUELS AND OF OXIDANT IN TOTAL OXIDANTS









               THERMODYNAMIC EQUILIBRIUM PROPERTIES AT ASSIGNED

                           TEMPERATURE AND PRESSURE

 CASE =                

             REACTANT                    WT FRACTION      ENERGY      TEMP
                                          (SEE NOTE)     KJ/KG-MOL      K  
 FUEL        H2                           1.0000000         0.000      0.000
 OXIDANT     H2                           1.0000000         0.000      0.000

 O/F=    1.00000  %FUEL= 50.000000  R,EQ.RATIO= 0.000000  PHI,EQ.RATIO=-1.000000

 THERMODYNAMIC PROPERTIES

 P, BAR            15.000   15.000   15.000   15.000   15.000   15.000   15.000   15.000
 T, K              380.00   390.00   400.00   410.00   420.00   430.00   440.00   450.00
 RHO, KG/CU M    9.5705-1 9.3251-1 9.0920-1 8.8702-1 8.6590-1 8.4577-1 8.2655-1 8.0818-1
 H, KJ/KG         1178.78  1323.47  1468.23  1613.06  1757.93  1902.85  2047.81  2192.80
 U, KJ/KG         -388.53  -285.09  -181.57  -77.991   25.640   129.32   233.03   336.77
 G, KJ/KG        -20537.9 -21111.3 -21688.4 -22269.1 -22853.3 -23441.0 -24032.1 -24626.4
 S, KJ/(KG)(K)    57.1491  57.5250  57.8915  58.2491  58.5982  58.9392  59.2725  59.5983

 M, (1/n)           2.016    2.016    2.016    2.016    2.016    2.016    2.016    2.016
 (dLV/dLP)t      -1.00000 -1.00000 -1.00000 -1.00000 -1.00000 -1.00000 -1.00000 -1.00000
 (dLV/dLT)p        1.0000   1.0000   1.0000   1.0000   1.0000   1.0000   1.0000   1.0000
 Cp, KJ/(KG)(K)   14.4644  14.4726  14.4795  14.4852  14.4900  14.4939  14.4973  14.5002
 GAMMAs            1.3989   1.3986   1.3983   1.3981   1.3979   1.3978   1.3976   1.3975
 SON VEL,M/SEC     1480.7   1499.9   1518.9   1537.6   1556.1   1574.5   1592.6   1610.5

 TRANSPORT PROPERTIES (GASES ONLY)
   CONDUCTIVITY IN UNITS OF MILLIWATTS/(CM)(K)

 VISC,MILLIPOISE  0.10524  0.10710  0.10895  0.11079  0.11262  0.11443  0.11623  0.11803

  WITH EQUILIBRIUM REACTIONS

 Cp, KJ/(KG)(K)   14.4644  14.4726  14.4795  14.4852  14.4900  14.4939  14.4973  14.5002
 CONDUCTIVITY      2.2180   2.2576   2.2969   2.3357   2.3742   2.4124   2.4503   2.4880
 PRANDTL NUMBER    0.6863   0.6866   0.6868   0.6871   0.6873   0.6875   0.6877   0.6879

  WITH FROZEN REACTIONS

 Cp, KJ/(KG)(K)   14.4644  14.4726  14.4795  14.4852  14.4900  14.4939  14.4973  14.5002
 CONDUCTIVITY      2.2180   2.2576   2.2969   2.3357   2.3742   2.4124   2.4503   2.4880
 PRANDTL NUMBER    0.6863   0.6866   0.6868   0.6871   0.6873   0.6875   0.6877   0.6879

 MASS FRACTIONS

 *H2              1.00000  1.00000  1.00000  1.00000  1.00000  1.00000  1.00000  1.00000

  * THERMODYNAMIC PROPERTIES FITTED TO 20000.K

 NOTE. WEIGHT FRACTION OF FUEL IN TOTAL FUELS AND OF OXIDANT IN TOTAL OXIDANTS









               THERMODYNAMIC EQUILIBRIUM PROPERTIES AT ASSIGNED

                           TEMPERATURE AND PRESSURE

 CASE =                

             REACTANT                    WT FRACTION      ENERGY      TEMP
                                          (SEE NOTE)     KJ/KG-MOL      K  
 FUEL        H2                           1.0000000         0.000      0.000
 OXIDANT     H2                           1.0000000         0.000      0.000

 O/F=    1.00000  %FUEL= 50.000000  R,EQ.RATIO= 0.000000  PHI,EQ.RATIO=-1.000000

 THERMODYNAMIC PROPERTIES

 P, BAR            15.000   15.000   15.000   15.000   20.000   20.000   20.000   20.000
 T, K              460.00   470.00   480.00   490.00   300.00   310.00   320.00   330.00
 RHO, KG/CU M    7.9061-1 7.7379-1 7.5767-1 7.4220-1 1.6164 0 1.5642 0 1.5153 0 1.4694 0
 H, KJ/KG         2337.81  2482.85  2627.91  2773.00   26.469   169.74   313.30   457.11
 U, KJ/KG          440.54   544.33   648.15   751.99 -1210.88 -1108.86 -1006.54  -903.98
 G, KJ/KG        -25224.0 -25824.7 -26428.6 -27035.4 -15741.0 -16269.0 -16801.6 -17338.6
 S, KJ/(KG)(K)    59.9170  60.2289  60.5343  60.8335  52.5584  53.0282  53.4839  53.9265

 M, (1/n)           2.016    2.016    2.016    2.016    2.016    2.016    2.016    2.016
 (dLV/dLP)t      -1.00000 -1.00000 -1.00000 -1.00000 -1.00000 -1.00000 -1.00000 -1.00000
 (dLV/dLT)p        1.0000   1.0000   1.0000   1.0000   1.0000   1.0000   1.0000   1.0000
 Cp, KJ/(KG)(K)   14.5028  14.5051  14.5073  14.5094  14.3109  14.3423  14.3693  14.3923
 GAMMAs            1.3974   1.3973   1.3972   1.3972   1.4049   1.4037   1.4026   1.4017
 SON VEL,M/SEC     1628.3   1645.8   1663.2   1680.4   1318.5   1339.7   1360.6   1381.2

 TRANSPORT PROPERTIES (GASES ONLY)
   CONDUCTIVITY IN UNITS OF MILLIWATTS/(CM)(K)

 VISC,MILLIPOISE  0.11981  0.12158  0.12334  0.12509  0.08974  0.09174  0.09372  0.09568

  WITH EQUILIBRIUM REACTIONS

 Cp, KJ/(KG)(K)   14.5028  14.5051  14.5073  14.5094  14.3109  14.3423  14.3693  14.3923
 CONDUCTIVITY      2.5254   2.5626   2.5997   2.6365   1.8781   1.9236   1.9680   2.0115
 PRANDTL NUMBER    0.6880   0.6882   0.6883   0.6884   0.6838   0.6840   0.6843   0.6846

  WITH FROZEN REACTIONS

 Cp, KJ/(KG)(K)   14.5028  14.5051  14.5073  14.5094  14.3109  14.3423  14.3693  14.3923
 CONDUCTIVITY      2.5254   2.5626   2.5997   2.6365   1.8781   1.9236   1.9680   2.0115
 PRANDTL NUMBER    0.6880   0.6882   0.6883   0.6884   0.6838   0.6840   0.6843   0.6846

 MASS FRACTIONS

 *H2              1.00000  1.00000  1.00000  1.00000  1.00000  1.00000  1.00000  1.00000

  * THERMODYNAMIC PROPERTIES FITTED TO 20000.K

 NOTE. WEIGHT FRACTION OF FUEL IN TOTAL FUELS AND OF OXIDANT IN TOTAL OXIDANTS









               THERMODYNAMIC EQUILIBRIUM PROPERTIES AT ASSIGNED

                           TEMPERATURE AND PRESSURE

 CASE =                

             REACTANT                    WT FRACTION      ENERGY      TEMP
                                          (SEE NOTE)     KJ/KG-MOL      K  
 FUEL        H2                           1.0000000         0.000      0.000
 OXIDANT     H2                           1.0000000         0.000      0.000

 O/F=    1.00000  %FUEL= 50.000000  R,EQ.RATIO= 0.000000  PHI,EQ.RATIO=-1.000000

 THERMODYNAMIC PROPERTIES

 P, BAR            20.000   20.000   20.000   20.000   20.000   20.000   20.000   20.000
 T, K              340.00   350.00   360.00   370.00   380.00   390.00   400.00   410.00
 RHO, KG/CU M    1.4262 0 1.3854 0 1.3470 0 1.3106 0 1.2761 0 1.2434 0 1.2123 0 1.1827 0
 H, KJ/KG          601.14   745.34   889.70  1034.19  1178.78  1323.47  1468.23  1613.06
 U, KJ/KG         -801.20  -698.24  -595.12  -491.88  -388.53  -285.09  -181.57  -77.991
 G, KJ/KG        -17880.0 -18425.7 -18975.5 -19529.3 -20087.0 -20648.5 -21213.7 -21782.6
 S, KJ/(KG)(K)    54.3564  54.7744  55.1811  55.5770  55.9626  56.3384  56.7049  57.0625

 M, (1/n)           2.016    2.016    2.016    2.016    2.016    2.016    2.016    2.016
 (dLV/dLP)t      -1.00000 -1.00000 -1.00000 -1.00000 -1.00000 -1.00000 -1.00000 -1.00000
 (dLV/dLT)p        1.0000   1.0000   1.0000   1.0000   1.0000   1.0000   1.0000   1.0000
 Cp, KJ/(KG)(K)   14.4120  14.4286  14.4427  14.4545  14.4644  14.4726  14.4795  14.4852
 GAMMAs            1.4009   1.4003   1.3997   1.3993   1.3989   1.3986   1.3983   1.3981
 SON VEL,M/SEC     1401.6   1421.8   1441.6   1461.3   1480.7   1499.9   1518.9   1537.6

 TRANSPORT PROPERTIES (GASES ONLY)
   CONDUCTIVITY IN UNITS OF MILLIWATTS/(CM)(K)

 VISC,MILLIPOISE  0.09763  0.09955  0.10146  0.10336  0.10524  0.10710  0.10895  0.11079

  WITH EQUILIBRIUM REACTIONS

 Cp, KJ/(KG)(K)   14.4120  14.4286  14.4427  14.4545  14.4644  14.4726  14.4795  14.4852
 CONDUCTIVITY      2.0541   2.0960   2.1373   2.1779   2.2180   2.2576   2.2969   2.3357
 PRANDTL NUMBER    0.6850   0.6853   0.6856   0.6860   0.6863   0.6866   0.6868   0.6871

  WITH FROZEN REACTIONS

 Cp, KJ/(KG)(K)   14.4120  14.4286  14.4427  14.4545  14.4644  14.4726  14.4795  14.4852
 CONDUCTIVITY      2.0541   2.0960   2.1373   2.1779   2.2180   2.2576   2.2969   2.3357
 PRANDTL NUMBER    0.6850   0.6853   0.6856   0.6860   0.6863   0.6866   0.6868   0.6871

 MASS FRACTIONS

 *H2              1.00000  1.00000  1.00000  1.00000  1.00000  1.00000  1.00000  1.00000

  * THERMODYNAMIC PROPERTIES FITTED TO 20000.K

 NOTE. WEIGHT FRACTION OF FUEL IN TOTAL FUELS AND OF OXIDANT IN TOTAL OXIDANTS









               THERMODYNAMIC EQUILIBRIUM PROPERTIES AT ASSIGNED

                           TEMPERATURE AND PRESSURE

 CASE =                

             REACTANT                    WT FRACTION      ENERGY      TEMP
                                          (SEE NOTE)     KJ/KG-MOL      K  
 FUEL        H2                           1.0000000         0.000      0.000
 OXIDANT     H2                           1.0000000         0.000      0.000

 O/F=    1.00000  %FUEL= 50.000000  R,EQ.RATIO= 0.000000  PHI,EQ.RATIO=-1.000000

 THERMODYNAMIC PROPERTIES

 P, BAR            20.000   20.000   20.000   20.000   20.000   20.000   20.000   20.000
 T, K              420.00   430.00   440.00   450.00   460.00   470.00   480.00   490.00
 RHO, KG/CU M    1.1545 0 1.1277 0 1.1021 0 1.0776 0 1.0541 0 1.0317 0 1.0102 0 9.8961-1
 H, KJ/KG         1757.93  1902.85  2047.81  2192.80  2337.81  2482.85  2627.91  2773.00
 U, KJ/KG          25.640   129.32   233.03   336.77   440.54   544.33   648.15   751.99
 G, KJ/KG        -22355.0 -22930.8 -23510.0 -24092.5 -24678.2 -25267.1 -25859.0 -26454.0
 S, KJ/(KG)(K)    57.4117  57.7527  58.0859  58.4117  58.7305  59.0424  59.3478  59.6470

 M, (1/n)           2.016    2.016    2.016    2.016    2.016    2.016    2.016    2.016
 (dLV/dLP)t      -1.00000 -1.00000 -1.00000 -1.00000 -1.00000 -1.00000 -1.00000 -1.00000
 (dLV/dLT)p        1.0000   1.0000   1.0000   1.0000   1.0000   1.0000   1.0000   1.0000
 Cp, KJ/(KG)(K)   14.4900  14.4939  14.4973  14.5002  14.5028  14.5051  14.5073  14.5094
 GAMMAs            1.3979   1.3978   1.3976   1.3975   1.3974   1.3973   1.3972   1.3972
 SON VEL,M/SEC     1556.1   1574.5   1592.6   1610.5   1628.3   1645.8   1663.2   1680.4

 TRANSPORT PROPERTIES (GASES ONLY)
   CONDUCTIVITY IN UNITS OF MILLIWATTS/(CM)(K)

 VISC,MILLIPOISE  0.11262  0.11443  0.11623  0.11803  0.11981  0.12158  0.12334  0.12509

  WITH EQUILIBRIUM REACTIONS

 Cp, KJ/(KG)(K)   14.4900  14.4939  14.4973  14.5002  14.5028  14.5051  14.5073  14.5094
 CONDUCTIVITY      2.3742   2.4124   2.4503   2.4880   2.5254   2.5626   2.5997   2.6365
 PRANDTL NUMBER    0.6873   0.6875   0.6877   0.6879   0.6880   0.6882   0.6883   0.6884

  WITH FROZEN REACTIONS

 Cp, KJ/(KG)(K)   14.4900  14.4939  14.4973  14.5002  14.5028  14.5051  14.5073  14.5094
 CONDUCTIVITY      2.3742   2.4124   2.4503   2.4880   2.5254   2.5626   2.5997   2.6365
 PRANDTL NUMBER    0.6873   0.6875   0.6877   0.6879   0.6880   0.6882   0.6883   0.6884

 MASS FRACTIONS

 *H2              1.00000  1.00000  1.00000  1.00000  1.00000  1.00000  1.00000  1.00000

  * THERMODYNAMIC PROPERTIES FITTED TO 20000.K

 NOTE. WEIGHT FRACTION OF FUEL IN TOTAL FUELS AND OF OXIDANT IN TOTAL OXIDANTS









               THERMODYNAMIC EQUILIBRIUM PROPERTIES AT ASSIGNED

                           TEMPERATURE AND PRESSURE

 CASE =                

             REACTANT                    WT FRACTION      ENERGY      TEMP
                                          (SEE NOTE)     KJ/KG-MOL      K  
 FUEL        H2                           1.0000000         0.000      0.000
 OXIDANT     H2                           1.0000000         0.000      0.000

 O/F=    1.00000  %FUEL= 50.000000  R,EQ.RATIO= 0.000000  PHI,EQ.RATIO=-1.000000

 THERMODYNAMIC PROPERTIES

 P, BAR            25.000   25.000   25.000   25.000   25.000   25.000   25.000   25.000
 T, K              300.00   310.00   320.00   330.00   340.00   350.00   360.00   370.00
 RHO, KG/CU M    2.0204 0 1.9553 0 1.8942 0 1.8368 0 1.7827 0 1.7318 0 1.6837 0 1.6382 0
 H, KJ/KG          26.469   169.74   313.30   457.11   601.14   745.34   889.70  1034.19
 U, KJ/KG        -1210.88 -1108.86 -1006.54  -903.98  -801.20  -698.24  -595.12  -491.88
 G, KJ/KG        -15464.9 -15983.7 -16507.0 -17034.9 -17567.1 -18103.6 -18644.2 -19188.8
 S, KJ/(KG)(K)    51.6380  52.1078  52.5636  53.0061  53.4361  53.8541  54.2608  54.6566

 M, (1/n)           2.016    2.016    2.016    2.016    2.016    2.016    2.016    2.016
 (dLV/dLP)t      -1.00000 -1.00000 -1.00000 -1.00000 -1.00000 -1.00000 -1.00000 -1.00000
 (dLV/dLT)p        1.0000   1.0000   1.0000   1.0000   1.0000   1.0000   1.0000   1.0000
 Cp, KJ/(KG)(K)   14.3109  14.3423  14.3693  14.3923  14.4120  14.4286  14.4427  14.4545
 GAMMAs            1.4049   1.4037   1.4026   1.4017   1.4009   1.4003   1.3997   1.3993
 SON VEL,M/SEC     1318.5   1339.7   1360.6   1381.2   1401.6   1421.8   1441.6   1461.3

 TRANSPORT PROPERTIES (GASES ONLY)
   CONDUCTIVITY IN UNITS OF MILLIWATTS/(CM)(K)

 VISC,MILLIPOISE  0.08974  0.09174  0.09372  0.09568  0.09763  0.09955  0.10146  0.10336

  WITH EQUILIBRIUM REACTIONS

 Cp, KJ/(KG)(K)   14.3109  14.3423  14.3693  14.3923  14.4120  14.4286  14.4427  14.4545
 CONDUCTIVITY      1.8781   1.9236   1.9680   2.0115   2.0541   2.0960   2.1373   2.1779
 PRANDTL NUMBER    0.6838   0.6840   0.6843   0.6846   0.6850   0.6853   0.6856   0.6860

  WITH FROZEN REACTIONS

 Cp, KJ/(KG)(K)   14.3109  14.3423  14.3693  14.3923  14.4120  14.4286  14.4427  14.4545
 CONDUCTIVITY      1.8781   1.9236   1.9680   2.0115   2.0541   2.0960   2.1373   2.1779
 PRANDTL NUMBER    0.6838   0.6840   0.6843   0.6846   0.6850   0.6853   0.6856   0.6860

 MASS FRACTIONS

 *H2              1.00000  1.00000  1.00000  1.00000  1.00000  1.00000  1.00000  1.00000

  * THERMODYNAMIC PROPERTIES FITTED TO 20000.K

 NOTE. WEIGHT FRACTION OF FUEL IN TOTAL FUELS AND OF OXIDANT IN TOTAL OXIDANTS









               THERMODYNAMIC EQUILIBRIUM PROPERTIES AT ASSIGNED

                           TEMPERATURE AND PRESSURE

 CASE =                

             REACTANT                    WT FRACTION      ENERGY      TEMP
                                          (SEE NOTE)     KJ/KG-MOL      K  
 FUEL        H2                           1.0000000         0.000      0.000
 OXIDANT     H2                           1.0000000         0.000      0.000

 O/F=    1.00000  %FUEL= 50.000000  R,EQ.RATIO= 0.000000  PHI,EQ.RATIO=-1.000000

 THERMODYNAMIC PROPERTIES

 P, BAR            25.000   25.000   25.000   25.000   25.000   25.000   25.000   25.000
 T, K              380.00   390.00   400.00   410.00   420.00   430.00   440.00   450.00
 RHO, KG/CU M    1.5951 0 1.5542 0 1.5153 0 1.4784 0 1.4432 0 1.4096 0 1.3776 0 1.3470 0
 H, KJ/KG         1178.78  1323.47  1468.23  1613.06  1757.93  1902.85  2047.81  2192.80
 U, KJ/KG         -388.53  -285.09  -181.57  -77.991   25.640   129.32   233.03   336.77
 G, KJ/KG        -19737.3 -20289.6 -20845.6 -21405.2 -21968.4 -22535.0 -23105.0 -23678.3
 S, KJ/(KG)(K)    55.0422  55.4181  55.7846  56.1422  56.4913  56.8323  57.1656  57.4914

 M, (1/n)           2.016    2.016    2.016    2.016    2.016    2.016    2.016    2.016
 (dLV/dLP)t      -1.00000 -1.00000 -1.00000 -1.00000 -1.00000 -1.00000 -1.00000 -1.00000
 (dLV/dLT)p        1.0000   1.0000   1.0000   1.0000   1.0000   1.0000   1.0000   1.0000
 Cp, KJ/(KG)(K)   14.4644  14.4726  14.4795  14.4852  14.4900  14.4939  14.4973  14.5002
 GAMMAs            1.3989   1.3986   1.3983   1.3981   1.3979   1.3978   1.3976   1.3975
 SON VEL,M/SEC     1480.7   1499.9   1518.9   1537.6   1556.1   1574.5   1592.6   1610.5

 TRANSPORT PROPERTIES (GASES ONLY)
   CONDUCTIVITY IN UNITS OF MILLIWATTS/(CM)(K)

 VISC,MILLIPOISE  0.10524  0.10710  0.10895  0.11079  0.11262  0.11443  0.11623  0.11803

  WITH EQUILIBRIUM REACTIONS

 Cp, KJ/(KG)(K)   14.4644  14.4726  14.4795  14.4852  14.4900  14.4939  14.4973  14.5002
 CONDUCTIVITY      2.2180   2.2576   2.2969   2.3357   2.3742   2.4124   2.4503   2.4880
 PRANDTL NUMBER    0.6863   0.6866   0.6868   0.6871   0.6873   0.6875   0.6877   0.6879

  WITH FROZEN REACTIONS

 Cp, KJ/(KG)(K)   14.4644  14.4726  14.4795  14.4852  14.4900  14.4939  14.4973  14.5002
 CONDUCTIVITY      2.2180   2.2576   2.2969   2.3357   2.3742   2.4124   2.4503   2.4880
 PRANDTL NUMBER    0.6863   0.6866   0.6868   0.6871   0.6873   0.6875   0.6877   0.6879

 MASS FRACTIONS

 *H2              1.00000  1.00000  1.00000  1.00000  1.00000  1.00000  1.00000  1.00000

  * THERMODYNAMIC PROPERTIES FITTED TO 20000.K

 NOTE. WEIGHT FRACTION OF FUEL IN TOTAL FUELS AND OF OXIDANT IN TOTAL OXIDANTS









               THERMODYNAMIC EQUILIBRIUM PROPERTIES AT ASSIGNED

                           TEMPERATURE AND PRESSURE

 CASE =                

             REACTANT                    WT FRACTION      ENERGY      TEMP
                                          (SEE NOTE)     KJ/KG-MOL      K  
 FUEL        H2                           1.0000000         0.000      0.000
 OXIDANT     H2                           1.0000000         0.000      0.000

 O/F=    1.00000  %FUEL= 50.000000  R,EQ.RATIO= 0.000000  PHI,EQ.RATIO=-1.000000

 THERMODYNAMIC PROPERTIES

 P, BAR            25.000   25.000   25.000   25.000   30.000   30.000   30.000   30.000
 T, K              460.00   470.00   480.00   490.00   300.00   310.00   320.00   330.00
 RHO, KG/CU M    1.3177 0 1.2896 0 1.2628 0 1.2370 0 2.4245 0 2.3463 0 2.2730 0 2.2041 0
 H, KJ/KG         2337.81  2482.85  2627.91  2773.00   26.469   169.74   313.30   457.11
 U, KJ/KG          440.54   544.33   648.15   751.99 -1210.88 -1108.86 -1006.54  -903.98
 G, KJ/KG        -24254.8 -24834.5 -25417.3 -26003.0 -15239.3 -15750.6 -16266.4 -16786.7
 S, KJ/(KG)(K)    57.8101  58.1220  58.4274  58.7266  50.8860  51.3558  51.8116  52.2541

 M, (1/n)           2.016    2.016    2.016    2.016    2.016    2.016    2.016    2.016
 (dLV/dLP)t      -1.00000 -1.00000 -1.00000 -1.00000 -1.00000 -1.00000 -1.00000 -1.00000
 (dLV/dLT)p        1.0000   1.0000   1.0000   1.0000   1.0000   1.0000   1.0000   1.0000
 Cp, KJ/(KG)(K)   14.5028  14.5051  14.5073  14.5094  14.3109  14.3423  14.3693  14.3923
 GAMMAs            1.3974   1.3973   1.3972   1.3972   1.4049   1.4037   1.4026   1.4017
 SON VEL,M/SEC     1628.3   1645.8   1663.2   1680.4   1318.5   1339.7   1360.6   1381.2

 TRANSPORT PROPERTIES (GASES ONLY)
   CONDUCTIVITY IN UNITS OF MILLIWATTS/(CM)(K)

 VISC,MILLIPOISE  0.11981  0.12158  0.12334  0.12509  0.08974  0.09174  0.09372  0.09568

  WITH EQUILIBRIUM REACTIONS

 Cp, KJ/(KG)(K)   14.5028  14.5051  14.5073  14.5094  14.3109  14.3423  14.3693  14.3923
 CONDUCTIVITY      2.5254   2.5626   2.5997   2.6365   1.8781   1.9236   1.9680   2.0115
 PRANDTL NUMBER    0.6880   0.6882   0.6883   0.6884   0.6838   0.6840   0.6843   0.6846

  WITH FROZEN REACTIONS

 Cp, KJ/(KG)(K)   14.5028  14.5051  14.5073  14.5094  14.3109  14.3423  14.3693  14.3923
 CONDUCTIVITY      2.5254   2.5626   2.5997   2.6365   1.8781   1.9236   1.9680   2.0115
 PRANDTL NUMBER    0.6880   0.6882   0.6883   0.6884   0.6838   0.6840   0.6843   0.6846

 MASS FRACTIONS

 *H2              1.00000  1.00000  1.00000  1.00000  1.00000  1.00000  1.00000  1.00000

  * THERMODYNAMIC PROPERTIES FITTED TO 20000.K

 NOTE. WEIGHT FRACTION OF FUEL IN TOTAL FUELS AND OF OXIDANT IN TOTAL OXIDANTS









               THERMODYNAMIC EQUILIBRIUM PROPERTIES AT ASSIGNED

                           TEMPERATURE AND PRESSURE

 CASE =                

             REACTANT                    WT FRACTION      ENERGY      TEMP
                                          (SEE NOTE)     KJ/KG-MOL      K  
 FUEL        H2                           1.0000000         0.000      0.000
 OXIDANT     H2                           1.0000000         0.000      0.000

 O/F=    1.00000  %FUEL= 50.000000  R,EQ.RATIO= 0.000000  PHI,EQ.RATIO=-1.000000

 THERMODYNAMIC PROPERTIES

 P, BAR            30.000   30.000   30.000   30.000   30.000   30.000   30.000   30.000
 T, K              340.00   350.00   360.00   370.00   380.00   390.00   400.00   410.00
 RHO, KG/CU M    2.1393 0 2.0782 0 2.0204 0 1.9658 0 1.9141 0 1.8650 0 1.8184 0 1.7740 0
 H, KJ/KG          601.14   745.34   889.70  1034.19  1178.78  1323.47  1468.23  1613.06
 U, KJ/KG         -801.20  -698.24  -595.12  -491.88  -388.53  -285.09  -181.57  -77.991
 G, KJ/KG        -17311.5 -17840.4 -18373.5 -18910.5 -19451.5 -19996.3 -20544.8 -21096.9
 S, KJ/(KG)(K)    52.6841  53.1021  53.5088  53.9046  54.2903  54.6661  55.0326  55.3902

 M, (1/n)           2.016    2.016    2.016    2.016    2.016    2.016    2.016    2.016
 (dLV/dLP)t      -1.00000 -1.00000 -1.00000 -1.00000 -1.00000 -1.00000 -1.00000 -1.00000
 (dLV/dLT)p        1.0000   1.0000   1.0000   1.0000   1.0000   1.0000   1.0000   1.0000
 Cp, KJ/(KG)(K)   14.4120  14.4286  14.4427  14.4545  14.4644  14.4726  14.4795  14.4852
 GAMMAs            1.4009   1.4003   1.3997   1.3993   1.3989   1.3986   1.3983   1.3981
 SON VEL,M/SEC     1401.6   1421.8   1441.6   1461.3   1480.7   1499.9   1518.9   1537.6

 TRANSPORT PROPERTIES (GASES ONLY)
   CONDUCTIVITY IN UNITS OF MILLIWATTS/(CM)(K)

 VISC,MILLIPOISE  0.09763  0.09955  0.10146  0.10336  0.10524  0.10710  0.10895  0.11079

  WITH EQUILIBRIUM REACTIONS

 Cp, KJ/(KG)(K)   14.4120  14.4286  14.4427  14.4545  14.4644  14.4726  14.4795  14.4852
 CONDUCTIVITY      2.0541   2.0960   2.1373   2.1779   2.2180   2.2576   2.2969   2.3357
 PRANDTL NUMBER    0.6850   0.6853   0.6856   0.6860   0.6863   0.6866   0.6868   0.6871

  WITH FROZEN REACTIONS

 Cp, KJ/(KG)(K)   14.4120  14.4286  14.4427  14.4545  14.4644  14.4726  14.4795  14.4852
 CONDUCTIVITY      2.0541   2.0960   2.1373   2.1779   2.2180   2.2576   2.2969   2.3357
 PRANDTL NUMBER    0.6850   0.6853   0.6856   0.6860   0.6863   0.6866   0.6868   0.6871

 MASS FRACTIONS

 *H2              1.00000  1.00000  1.00000  1.00000  1.00000  1.00000  1.00000  1.00000

  * THERMODYNAMIC PROPERTIES FITTED TO 20000.K

 NOTE. WEIGHT FRACTION OF FUEL IN TOTAL FUELS AND OF OXIDANT IN TOTAL OXIDANTS









               THERMODYNAMIC EQUILIBRIUM PROPERTIES AT ASSIGNED

                           TEMPERATURE AND PRESSURE

 CASE =                

             REACTANT                    WT FRACTION      ENERGY      TEMP
                                          (SEE NOTE)     KJ/KG-MOL      K  
 FUEL        H2                           1.0000000         0.000      0.000
 OXIDANT     H2                           1.0000000         0.000      0.000

 O/F=    1.00000  %FUEL= 50.000000  R,EQ.RATIO= 0.000000  PHI,EQ.RATIO=-1.000000

 THERMODYNAMIC PROPERTIES

 P, BAR            30.000   30.000   30.000   30.000   30.000   30.000   30.000   30.000
 T, K              420.00   430.00   440.00   450.00   460.00   470.00   480.00   490.00
 RHO, KG/CU M    1.7318 0 1.6915 0 1.6531 0 1.6164 0 1.5812 0 1.5476 0 1.5153 0 1.4844 0
 H, KJ/KG         1757.93  1902.85  2047.81  2192.80  2337.81  2482.85  2627.91  2773.00
 U, KJ/KG          25.640   129.32   233.03   336.77   440.54   544.33   648.15   751.99
 G, KJ/KG        -21652.6 -22211.7 -22774.2 -23339.9 -23908.9 -24481.1 -25056.3 -25634.6
 S, KJ/(KG)(K)    55.7393  56.0803  56.4136  56.7394  57.0581  57.3701  57.6755  57.9746

 M, (1/n)           2.016    2.016    2.016    2.016    2.016    2.016    2.016    2.016
 (dLV/dLP)t      -1.00000 -1.00000 -1.00000 -1.00000 -1.00000 -1.00000 -1.00000 -1.00000
 (dLV/dLT)p        1.0000   1.0000   1.0000   1.0000   1.0000   1.0000   1.0000   1.0000
 Cp, KJ/(KG)(K)   14.4900  14.4939  14.4973  14.5002  14.5028  14.5051  14.5073  14.5094
 GAMMAs            1.3979   1.3978   1.3976   1.3975   1.3974   1.3973   1.3972   1.3972
 SON VEL,M/SEC     1556.1   1574.5   1592.6   1610.5   1628.3   1645.8   1663.2   1680.4

 TRANSPORT PROPERTIES (GASES ONLY)
   CONDUCTIVITY IN UNITS OF MILLIWATTS/(CM)(K)

 VISC,MILLIPOISE  0.11262  0.11443  0.11623  0.11803  0.11981  0.12158  0.12334  0.12509

  WITH EQUILIBRIUM REACTIONS

 Cp, KJ/(KG)(K)   14.4900  14.4939  14.4973  14.5002  14.5028  14.5051  14.5073  14.5094
 CONDUCTIVITY      2.3742   2.4124   2.4503   2.4880   2.5254   2.5626   2.5997   2.6365
 PRANDTL NUMBER    0.6873   0.6875   0.6877   0.6879   0.6880   0.6882   0.6883   0.6884

  WITH FROZEN REACTIONS

 Cp, KJ/(KG)(K)   14.4900  14.4939  14.4973  14.5002  14.5028  14.5051  14.5073  14.5094
 CONDUCTIVITY      2.3742   2.4124   2.4503   2.4880   2.5254   2.5626   2.5997   2.6365
 PRANDTL NUMBER    0.6873   0.6875   0.6877   0.6879   0.6880   0.6882   0.6883   0.6884

 MASS FRACTIONS

 *H2              1.00000  1.00000  1.00000  1.00000  1.00000  1.00000  1.00000  1.00000

  * THERMODYNAMIC PROPERTIES FITTED TO 20000.K

 NOTE. WEIGHT FRACTION OF FUEL IN TOTAL FUELS AND OF OXIDANT IN TOTAL OXIDANTS









               THERMODYNAMIC EQUILIBRIUM PROPERTIES AT ASSIGNED

                           TEMPERATURE AND PRESSURE

 CASE =                

             REACTANT                    WT FRACTION      ENERGY      TEMP
                                          (SEE NOTE)     KJ/KG-MOL      K  
 FUEL        H2                           1.0000000         0.000      0.000
 OXIDANT     H2                           1.0000000         0.000      0.000

 O/F=    1.00000  %FUEL= 50.000000  R,EQ.RATIO= 0.000000  PHI,EQ.RATIO=-1.000000

 THERMODYNAMIC PROPERTIES

 P, BAR            40.000   40.000   40.000   40.000   40.000   40.000   40.000   40.000
 T, K              300.00   310.00   320.00   330.00   340.00   350.00   360.00   370.00
 RHO, KG/CU M    3.2327 0 3.1284 0 3.0307 0 2.9388 0 2.8524 0 2.7709 0 2.6939 0 2.6211 0
 H, KJ/KG          26.469   169.74   313.30   457.11   601.14   745.34   889.70  1034.19
 U, KJ/KG        -1210.88 -1108.86 -1006.54  -903.98  -801.20  -698.24  -595.12  -491.88
 G, KJ/KG        -14883.4 -15382.7 -15886.7 -16395.2 -16908.0 -17425.1 -17946.3 -18471.5
 S, KJ/(KG)(K)    49.6995  50.1693  50.6251  51.0676  51.4975  51.9155  52.3222  52.7181

 M, (1/n)           2.016    2.016    2.016    2.016    2.016    2.016    2.016    2.016
 (dLV/dLP)t      -1.00000 -1.00000 -1.00000 -1.00000 -1.00000 -1.00000 -1.00000 -1.00000
 (dLV/dLT)p        1.0000   1.0000   1.0000   1.0000   1.0000   1.0000   1.0000   1.0000
 Cp, KJ/(KG)(K)   14.3109  14.3423  14.3693  14.3923  14.4120  14.4286  14.4427  14.4545
 GAMMAs            1.4049   1.4037   1.4026   1.4017   1.4009   1.4003   1.3997   1.3993
 SON VEL,M/SEC     1318.5   1339.7   1360.6   1381.2   1401.6   1421.8   1441.6   1461.3

 TRANSPORT PROPERTIES (GASES ONLY)
   CONDUCTIVITY IN UNITS OF MILLIWATTS/(CM)(K)

 VISC,MILLIPOISE  0.08974  0.09174  0.09372  0.09568  0.09763  0.09955  0.10146  0.10336

  WITH EQUILIBRIUM REACTIONS

 Cp, KJ/(KG)(K)   14.3109  14.3423  14.3693  14.3923  14.4120  14.4286  14.4427  14.4545
 CONDUCTIVITY      1.8781   1.9236   1.9680   2.0115   2.0541   2.0960   2.1373   2.1779
 PRANDTL NUMBER    0.6838   0.6840   0.6843   0.6846   0.6850   0.6853   0.6856   0.6860

  WITH FROZEN REACTIONS

 Cp, KJ/(KG)(K)   14.3109  14.3423  14.3693  14.3923  14.4120  14.4286  14.4427  14.4545
 CONDUCTIVITY      1.8781   1.9236   1.9680   2.0115   2.0541   2.0960   2.1373   2.1779
 PRANDTL NUMBER    0.6838   0.6840   0.6843   0.6846   0.6850   0.6853   0.6856   0.6860

 MASS FRACTIONS

 *H2              1.00000  1.00000  1.00000  1.00000  1.00000  1.00000  1.00000  1.00000

  * THERMODYNAMIC PROPERTIES FITTED TO 20000.K

 NOTE. WEIGHT FRACTION OF FUEL IN TOTAL FUELS AND OF OXIDANT IN TOTAL OXIDANTS









               THERMODYNAMIC EQUILIBRIUM PROPERTIES AT ASSIGNED

                           TEMPERATURE AND PRESSURE

 CASE =                

             REACTANT                    WT FRACTION      ENERGY      TEMP
                                          (SEE NOTE)     KJ/KG-MOL      K  
 FUEL        H2                           1.0000000         0.000      0.000
 OXIDANT     H2                           1.0000000         0.000      0.000

 O/F=    1.00000  %FUEL= 50.000000  R,EQ.RATIO= 0.000000  PHI,EQ.RATIO=-1.000000

 THERMODYNAMIC PROPERTIES

 P, BAR            40.000   40.000   40.000   40.000   40.000   40.000   40.000   40.000
 T, K              380.00   390.00   400.00   410.00   420.00   430.00   440.00   450.00
 RHO, KG/CU M    2.5521 0 2.4867 0 2.4245 0 2.3654 0 2.3091 0 2.2554 0 2.2041 0 2.1551 0
 H, KJ/KG         1178.78  1323.47  1468.23  1613.06  1757.93  1902.85  2047.81  2192.80
 U, KJ/KG         -388.53  -285.09  -181.57  -77.991   25.640   129.32   233.03   336.77
 G, KJ/KG        -19000.6 -19533.6 -20070.2 -20610.4 -21154.2 -21701.5 -22252.1 -22806.0
 S, KJ/(KG)(K)    53.1037  53.4795  53.8460  54.2037  54.5528  54.8938  55.2270  55.5529

 M, (1/n)           2.016    2.016    2.016    2.016    2.016    2.016    2.016    2.016
 (dLV/dLP)t      -1.00000 -1.00000 -1.00000 -1.00000 -1.00000 -1.00000 -1.00000 -1.00000
 (dLV/dLT)p        1.0000   1.0000   1.0000   1.0000   1.0000   1.0000   1.0000   1.0000
 Cp, KJ/(KG)(K)   14.4644  14.4726  14.4795  14.4852  14.4900  14.4939  14.4973  14.5002
 GAMMAs            1.3989   1.3986   1.3983   1.3981   1.3979   1.3978   1.3976   1.3975
 SON VEL,M/SEC     1480.7   1499.9   1518.9   1537.6   1556.1   1574.5   1592.6   1610.5

 TRANSPORT PROPERTIES (GASES ONLY)
   CONDUCTIVITY IN UNITS OF MILLIWATTS/(CM)(K)

 VISC,MILLIPOISE  0.10524  0.10710  0.10895  0.11079  0.11262  0.11443  0.11623  0.11803

  WITH EQUILIBRIUM REACTIONS

 Cp, KJ/(KG)(K)   14.4644  14.4726  14.4795  14.4852  14.4900  14.4939  14.4973  14.5002
 CONDUCTIVITY      2.2180   2.2576   2.2969   2.3357   2.3742   2.4124   2.4503   2.4880
 PRANDTL NUMBER    0.6863   0.6866   0.6868   0.6871   0.6873   0.6875   0.6877   0.6879

  WITH FROZEN REACTIONS

 Cp, KJ/(KG)(K)   14.4644  14.4726  14.4795  14.4852  14.4900  14.4939  14.4973  14.5002
 CONDUCTIVITY      2.2180   2.2576   2.2969   2.3357   2.3742   2.4124   2.4503   2.4880
 PRANDTL NUMBER    0.6863   0.6866   0.6868   0.6871   0.6873   0.6875   0.6877   0.6879

 MASS FRACTIONS

 *H2              1.00000  1.00000  1.00000  1.00000  1.00000  1.00000  1.00000  1.00000

  * THERMODYNAMIC PROPERTIES FITTED TO 20000.K

 NOTE. WEIGHT FRACTION OF FUEL IN TOTAL FUELS AND OF OXIDANT IN TOTAL OXIDANTS









               THERMODYNAMIC EQUILIBRIUM PROPERTIES AT ASSIGNED

                           TEMPERATURE AND PRESSURE

 CASE =                

             REACTANT                    WT FRACTION      ENERGY      TEMP
                                          (SEE NOTE)     KJ/KG-MOL      K  
 FUEL        H2                           1.0000000         0.000      0.000
 OXIDANT     H2                           1.0000000         0.000      0.000

 O/F=    1.00000  %FUEL= 50.000000  R,EQ.RATIO= 0.000000  PHI,EQ.RATIO=-1.000000

 THERMODYNAMIC PROPERTIES

 P, BAR            40.000   40.000   40.000   40.000   50.000   50.000   50.000   50.000
 T, K              460.00   470.00   480.00   490.00   300.00   310.00   320.00   330.00
 RHO, KG/CU M    2.1083 0 2.0634 0 2.0204 0 1.9792 0 4.0409 0 3.9105 0 3.7883 0 3.6735 0
 H, KJ/KG         2337.81  2482.85  2627.91  2773.00   26.469   169.74   313.30   457.11
 U, KJ/KG          440.54   544.33   648.15   751.99 -1210.88 -1108.86 -1006.54  -903.98
 G, KJ/KG        -23363.1 -23923.4 -24486.8 -25053.2 -14607.3 -15097.4 -15592.2 -16091.5
 S, KJ/(KG)(K)    55.8716  56.1835  56.4889  56.7881  48.7791  49.2489  49.7047  50.1472

 M, (1/n)           2.016    2.016    2.016    2.016    2.016    2.016    2.016    2.016
 (dLV/dLP)t      -1.00000 -1.00000 -1.00000 -1.00000 -1.00000 -1.00000 -1.00000 -1.00000
 (dLV/dLT)p        1.0000   1.0000   1.0000   1.0000   1.0000   1.0000   1.0000   1.0000
 Cp, KJ/(KG)(K)   14.5028  14.5051  14.5073  14.5094  14.3109  14.3423  14.3693  14.3923
 GAMMAs            1.3974   1.3973   1.3972   1.3972   1.4049   1.4037   1.4026   1.4017
 SON VEL,M/SEC     1628.3   1645.8   1663.2   1680.4   1318.5   1339.7   1360.6   1381.2

 TRANSPORT PROPERTIES (GASES ONLY)
   CONDUCTIVITY IN UNITS OF MILLIWATTS/(CM)(K)

 VISC,MILLIPOISE  0.11981  0.12158  0.12334  0.12509  0.08974  0.09174  0.09372  0.09568

  WITH EQUILIBRIUM REACTIONS

 Cp, KJ/(KG)(K)   14.5028  14.5051  14.5073  14.5094  14.3109  14.3423  14.3693  14.3923
 CONDUCTIVITY      2.5254   2.5626   2.5997   2.6365   1.8781   1.9236   1.9680   2.0115
 PRANDTL NUMBER    0.6880   0.6882   0.6883   0.6884   0.6838   0.6840   0.6843   0.6846

  WITH FROZEN REACTIONS

 Cp, KJ/(KG)(K)   14.5028  14.5051  14.5073  14.5094  14.3109  14.3423  14.3693  14.3923
 CONDUCTIVITY      2.5254   2.5626   2.5997   2.6365   1.8781   1.9236   1.9680   2.0115
 PRANDTL NUMBER    0.6880   0.6882   0.6883   0.6884   0.6838   0.6840   0.6843   0.6846

 MASS FRACTIONS

 *H2              1.00000  1.00000  1.00000  1.00000  1.00000  1.00000  1.00000  1.00000

  * THERMODYNAMIC PROPERTIES FITTED TO 20000.K

 NOTE. WEIGHT FRACTION OF FUEL IN TOTAL FUELS AND OF OXIDANT IN TOTAL OXIDANTS









               THERMODYNAMIC EQUILIBRIUM PROPERTIES AT ASSIGNED

                           TEMPERATURE AND PRESSURE

 CASE =                

             REACTANT                    WT FRACTION      ENERGY      TEMP
                                          (SEE NOTE)     KJ/KG-MOL      K  
 FUEL        H2                           1.0000000         0.000      0.000
 OXIDANT     H2                           1.0000000         0.000      0.000

 O/F=    1.00000  %FUEL= 50.000000  R,EQ.RATIO= 0.000000  PHI,EQ.RATIO=-1.000000

 THERMODYNAMIC PROPERTIES

 P, BAR            50.000   50.000   50.000   50.000   50.000   50.000   50.000   50.000
 T, K              340.00   350.00   360.00   370.00   380.00   390.00   400.00   410.00
 RHO, KG/CU M    3.5655 0 3.4636 0 3.3674 0 3.2764 0 3.1902 0 3.1084 0 3.0307 0 2.9567 0
 H, KJ/KG          601.14   745.34   889.70  1034.19  1178.78  1323.47  1468.23  1613.06
 U, KJ/KG         -801.20  -698.24  -595.12  -491.88  -388.53  -285.09  -181.57  -77.991
 G, KJ/KG        -16595.1 -17103.0 -17615.0 -18131.0 -18650.9 -19174.6 -19702.0 -20233.1
 S, KJ/(KG)(K)    50.5772  50.9952  51.4019  51.7977  52.1834  52.5592  52.9257  53.2833

 M, (1/n)           2.016    2.016    2.016    2.016    2.016    2.016    2.016    2.016
 (dLV/dLP)t      -1.00000 -1.00000 -1.00000 -1.00000 -1.00000 -1.00000 -1.00000 -1.00000
 (dLV/dLT)p        1.0000   1.0000   1.0000   1.0000   1.0000   1.0000   1.0000   1.0000
 Cp, KJ/(KG)(K)   14.4120  14.4286  14.4427  14.4545  14.4644  14.4726  14.4795  14.4852
 GAMMAs            1.4009   1.4003   1.3997   1.3993   1.3989   1.3986   1.3983   1.3981
 SON VEL,M/SEC     1401.6   1421.8   1441.6   1461.3   1480.7   1499.9   1518.9   1537.6

 TRANSPORT PROPERTIES (GASES ONLY)
   CONDUCTIVITY IN UNITS OF MILLIWATTS/(CM)(K)

 VISC,MILLIPOISE  0.09763  0.09955  0.10146  0.10336  0.10524  0.10710  0.10895  0.11079

  WITH EQUILIBRIUM REACTIONS

 Cp, KJ/(KG)(K)   14.4120  14.4286  14.4427  14.4545  14.4644  14.4726  14.4795  14.4852
 CONDUCTIVITY      2.0541   2.0960   2.1373   2.1779   2.2180   2.2576   2.2969   2.3357
 PRANDTL NUMBER    0.6850   0.6853   0.6856   0.6860   0.6863   0.6866   0.6868   0.6871

  WITH FROZEN REACTIONS

 Cp, KJ/(KG)(K)   14.4120  14.4286  14.4427  14.4545  14.4644  14.4726  14.4795  14.4852
 CONDUCTIVITY      2.0541   2.0960   2.1373   2.1779   2.2180   2.2576   2.2969   2.3357
 PRANDTL NUMBER    0.6850   0.6853   0.6856   0.6860   0.6863   0.6866   0.6868   0.6871

 MASS FRACTIONS

 *H2              1.00000  1.00000  1.00000  1.00000  1.00000  1.00000  1.00000  1.00000

  * THERMODYNAMIC PROPERTIES FITTED TO 20000.K

 NOTE. WEIGHT FRACTION OF FUEL IN TOTAL FUELS AND OF OXIDANT IN TOTAL OXIDANTS









               THERMODYNAMIC EQUILIBRIUM PROPERTIES AT ASSIGNED

                           TEMPERATURE AND PRESSURE

 CASE =                

             REACTANT                    WT FRACTION      ENERGY      TEMP
                                          (SEE NOTE)     KJ/KG-MOL      K  
 FUEL        H2                           1.0000000         0.000      0.000
 OXIDANT     H2                           1.0000000         0.000      0.000

 O/F=    1.00000  %FUEL= 50.000000  R,EQ.RATIO= 0.000000  PHI,EQ.RATIO=-1.000000

 THERMODYNAMIC PROPERTIES

 P, BAR            50.000   50.000   50.000   50.000   50.000   50.000   50.000   50.000
 T, K              420.00   430.00   440.00   450.00   460.00   470.00   480.00   490.00
 RHO, KG/CU M    2.8863 0 2.8192 0 2.7552 0 2.6939 0 2.6354 0 2.5793 0 2.5256 0 2.4740 0
 H, KJ/KG         1757.93  1902.85  2047.81  2192.80  2337.81  2482.85  2627.91  2773.00
 U, KJ/KG          25.640   129.32   233.03   336.77   440.54   544.33   648.15   751.99
 G, KJ/KG        -20767.7 -21305.7 -21847.1 -22391.8 -22939.7 -23490.8 -24045.0 -24602.2
 S, KJ/(KG)(K)    53.6324  53.9734  54.3067  54.6325  54.9512  55.2631  55.5686  55.8677

 M, (1/n)           2.016    2.016    2.016    2.016    2.016    2.016    2.016    2.016
 (dLV/dLP)t      -1.00000 -1.00000 -1.00000 -1.00000 -1.00000 -1.00000 -1.00000 -1.00000
 (dLV/dLT)p        1.0000   1.0000   1.0000   1.0000   1.0000   1.0000   1.0000   1.0000
 Cp, KJ/(KG)(K)   14.4900  14.4939  14.4973  14.5002  14.5028  14.5051  14.5073  14.5094
 GAMMAs            1.3979   1.3978   1.3976   1.3975   1.3974   1.3973   1.3972   1.3972
 SON VEL,M/SEC     1556.1   1574.5   1592.6   1610.5   1628.3   1645.8   1663.2   1680.4

 TRANSPORT PROPERTIES (GASES ONLY)
   CONDUCTIVITY IN UNITS OF MILLIWATTS/(CM)(K)

 VISC,MILLIPOISE  0.11262  0.11443  0.11623  0.11803  0.11981  0.12158  0.12334  0.12509

  WITH EQUILIBRIUM REACTIONS

 Cp, KJ/(KG)(K)   14.4900  14.4939  14.4973  14.5002  14.5028  14.5051  14.5073  14.5094
 CONDUCTIVITY      2.3742   2.4124   2.4503   2.4880   2.5254   2.5626   2.5997   2.6365
 PRANDTL NUMBER    0.6873   0.6875   0.6877   0.6879   0.6880   0.6882   0.6883   0.6884

  WITH FROZEN REACTIONS

 Cp, KJ/(KG)(K)   14.4900  14.4939  14.4973  14.5002  14.5028  14.5051  14.5073  14.5094
 CONDUCTIVITY      2.3742   2.4124   2.4503   2.4880   2.5254   2.5626   2.5997   2.6365
 PRANDTL NUMBER    0.6873   0.6875   0.6877   0.6879   0.6880   0.6882   0.6883   0.6884

 MASS FRACTIONS

 *H2              1.00000  1.00000  1.00000  1.00000  1.00000  1.00000  1.00000  1.00000

  * THERMODYNAMIC PROPERTIES FITTED TO 20000.K

 NOTE. WEIGHT FRACTION OF FUEL IN TOTAL FUELS AND OF OXIDANT IN TOTAL OXIDANTS









               THERMODYNAMIC EQUILIBRIUM PROPERTIES AT ASSIGNED

                           TEMPERATURE AND PRESSURE

 CASE =                

             REACTANT                    WT FRACTION      ENERGY      TEMP
                                          (SEE NOTE)     KJ/KG-MOL      K  
 FUEL        H2                           1.0000000         0.000      0.000
 OXIDANT     H2                           1.0000000         0.000      0.000

 O/F=    1.00000  %FUEL= 50.000000  R,EQ.RATIO= 0.000000  PHI,EQ.RATIO=-1.000000

 THERMODYNAMIC PROPERTIES

 P, BAR            62.500   62.500   62.500   62.500   62.500   62.500   62.500   62.500
 T, K              300.00   310.00   320.00   330.00   340.00   350.00   360.00   370.00
 RHO, KG/CU M    5.0511 0 4.8882 0 4.7354 0 4.5919 0 4.4569 0 4.3295 0 4.2093 0 4.0955 0
 H, KJ/KG          26.469   169.74   313.30   457.11   601.14   745.34   889.70  1034.19
 U, KJ/KG        -1210.88 -1108.86 -1006.54  -903.98  -801.20  -698.24  -595.12  -491.88
 G, KJ/KG        -14331.2 -14812.1 -15297.7 -15787.8 -16282.2 -16780.9 -17283.6 -17790.4
 S, KJ/(KG)(K)    47.8588  48.3286  48.7843  49.2269  49.6568  50.0748  50.4815  50.8774

 M, (1/n)           2.016    2.016    2.016    2.016    2.016    2.016    2.016    2.016
 (dLV/dLP)t      -1.00000 -1.00000 -1.00000 -1.00000 -1.00000 -1.00000 -1.00000 -1.00000
 (dLV/dLT)p        1.0000   1.0000   1.0000   1.0000   1.0000   1.0000   1.0000   1.0000
 Cp, KJ/(KG)(K)   14.3109  14.3423  14.3693  14.3923  14.4120  14.4286  14.4427  14.4545
 GAMMAs            1.4049   1.4037   1.4026   1.4017   1.4009   1.4003   1.3997   1.3993
 SON VEL,M/SEC     1318.5   1339.7   1360.6   1381.2   1401.6   1421.8   1441.6   1461.3

 TRANSPORT PROPERTIES (GASES ONLY)
   CONDUCTIVITY IN UNITS OF MILLIWATTS/(CM)(K)

 VISC,MILLIPOISE  0.08974  0.09174  0.09372  0.09568  0.09763  0.09955  0.10146  0.10336

  WITH EQUILIBRIUM REACTIONS

 Cp, KJ/(KG)(K)   14.3109  14.3423  14.3693  14.3923  14.4120  14.4286  14.4427  14.4545
 CONDUCTIVITY      1.8781   1.9236   1.9680   2.0115   2.0541   2.0960   2.1373   2.1779
 PRANDTL NUMBER    0.6838   0.6840   0.6843   0.6846   0.6850   0.6853   0.6856   0.6860

  WITH FROZEN REACTIONS

 Cp, KJ/(KG)(K)   14.3109  14.3423  14.3693  14.3923  14.4120  14.4286  14.4427  14.4545
 CONDUCTIVITY      1.8781   1.9236   1.9680   2.0115   2.0541   2.0960   2.1373   2.1779
 PRANDTL NUMBER    0.6838   0.6840   0.6843   0.6846   0.6850   0.6853   0.6856   0.6860

 MASS FRACTIONS

 *H2              1.00000  1.00000  1.00000  1.00000  1.00000  1.00000  1.00000  1.00000

  * THERMODYNAMIC PROPERTIES FITTED TO 20000.K

 NOTE. WEIGHT FRACTION OF FUEL IN TOTAL FUELS AND OF OXIDANT IN TOTAL OXIDANTS









               THERMODYNAMIC EQUILIBRIUM PROPERTIES AT ASSIGNED

                           TEMPERATURE AND PRESSURE

 CASE =                

             REACTANT                    WT FRACTION      ENERGY      TEMP
                                          (SEE NOTE)     KJ/KG-MOL      K  
 FUEL        H2                           1.0000000         0.000      0.000
 OXIDANT     H2                           1.0000000         0.000      0.000

 O/F=    1.00000  %FUEL= 50.000000  R,EQ.RATIO= 0.000000  PHI,EQ.RATIO=-1.000000

 THERMODYNAMIC PROPERTIES

 P, BAR            62.500   62.500   62.500   62.500   62.500   62.500   62.500   62.500
 T, K              380.00   390.00   400.00   410.00   420.00   430.00   440.00   450.00
 RHO, KG/CU M    3.9877 0 3.8855 0 3.7883 0 3.6959 0 3.6079 0 3.5240 0 3.4439 0 3.3674 0
 H, KJ/KG         1178.78  1323.47  1468.23  1613.06  1757.93  1902.85  2047.81  2192.80
 U, KJ/KG         -388.53  -285.09  -181.57  -77.991   25.640   129.32   233.03   336.77
 G, KJ/KG        -18301.2 -18815.7 -19333.9 -19855.7 -20381.1 -20910.0 -21442.2 -21977.7
 S, KJ/(KG)(K)    51.2630  51.6388  52.0053  52.3629  52.7121  53.0531  53.3863  53.7121

 M, (1/n)           2.016    2.016    2.016    2.016    2.016    2.016    2.016    2.016
 (dLV/dLP)t      -1.00000 -1.00000 -1.00000 -1.00000 -1.00000 -1.00000 -1.00000 -1.00000
 (dLV/dLT)p        1.0000   1.0000   1.0000   1.0000   1.0000   1.0000   1.0000   1.0000
 Cp, KJ/(KG)(K)   14.4644  14.4726  14.4795  14.4852  14.4900  14.4939  14.4973  14.5002
 GAMMAs            1.3989   1.3986   1.3983   1.3981   1.3979   1.3978   1.3976   1.3975
 SON VEL,M/SEC     1480.7   1499.9   1518.9   1537.6   1556.1   1574.5   1592.6   1610.5

 TRANSPORT PROPERTIES (GASES ONLY)
   CONDUCTIVITY IN UNITS OF MILLIWATTS/(CM)(K)

 VISC,MILLIPOISE  0.10524  0.10710  0.10895  0.11079  0.11262  0.11443  0.11623  0.11803

  WITH EQUILIBRIUM REACTIONS

 Cp, KJ/(KG)(K)   14.4644  14.4726  14.4795  14.4852  14.4900  14.4939  14.4973  14.5002
 CONDUCTIVITY      2.2180   2.2576   2.2969   2.3357   2.3742   2.4124   2.4503   2.4880
 PRANDTL NUMBER    0.6863   0.6866   0.6868   0.6871   0.6873   0.6875   0.6877   0.6879

  WITH FROZEN REACTIONS

 Cp, KJ/(KG)(K)   14.4644  14.4726  14.4795  14.4852  14.4900  14.4939  14.4973  14.5002
 CONDUCTIVITY      2.2180   2.2576   2.2969   2.3357   2.3742   2.4124   2.4503   2.4880
 PRANDTL NUMBER    0.6863   0.6866   0.6868   0.6871   0.6873   0.6875   0.6877   0.6879

 MASS FRACTIONS

 *H2              1.00000  1.00000  1.00000  1.00000  1.00000  1.00000  1.00000  1.00000

  * THERMODYNAMIC PROPERTIES FITTED TO 20000.K

 NOTE. WEIGHT FRACTION OF FUEL IN TOTAL FUELS AND OF OXIDANT IN TOTAL OXIDANTS









               THERMODYNAMIC EQUILIBRIUM PROPERTIES AT ASSIGNED

                           TEMPERATURE AND PRESSURE

 CASE =                

             REACTANT                    WT FRACTION      ENERGY      TEMP
                                          (SEE NOTE)     KJ/KG-MOL      K  
 FUEL        H2                           1.0000000         0.000      0.000
 OXIDANT     H2                           1.0000000         0.000      0.000

 O/F=    1.00000  %FUEL= 50.000000  R,EQ.RATIO= 0.000000  PHI,EQ.RATIO=-1.000000

 THERMODYNAMIC PROPERTIES

 P, BAR            62.500   62.500   62.500   62.500   80.000   80.000   80.000   80.000
 T, K              460.00   470.00   480.00   490.00   300.00   310.00   320.00   330.00
 RHO, KG/CU M    3.2942 0 3.2241 0 3.1569 0 3.0925 0 6.4654 0 6.2569 0 6.0613 0 5.8777 0
 H, KJ/KG         2337.81  2482.85  2627.91  2773.00   26.469   169.74   313.30   457.11
 U, KJ/KG          440.54   544.33   648.15   751.99 -1210.88 -1108.86 -1006.54  -903.98
 G, KJ/KG        -22516.4 -23058.3 -23603.2 -24151.2 -14025.7 -14496.5 -14971.9 -15451.8
 S, KJ/(KG)(K)    54.0309  54.3428  54.6482  54.9473  46.8406  47.3104  47.7662  48.2087

 M, (1/n)           2.016    2.016    2.016    2.016    2.016    2.016    2.016    2.016
 (dLV/dLP)t      -1.00000 -1.00000 -1.00000 -1.00000 -1.00000 -1.00000 -1.00000 -1.00000
 (dLV/dLT)p        1.0000   1.0000   1.0000   1.0000   1.0000   1.0000   1.0000   1.0000
 Cp, KJ/(KG)(K)   14.5028  14.5051  14.5073  14.5094  14.3109  14.3423  14.3693  14.3923
 GAMMAs            1.3974   1.3973   1.3972   1.3972   1.4049   1.4037   1.4026   1.4017
 SON VEL,M/SEC     1628.3   1645.8   1663.2   1680.4   1318.5   1339.7   1360.6   1381.2

 TRANSPORT PROPERTIES (GASES ONLY)
   CONDUCTIVITY IN UNITS OF MILLIWATTS/(CM)(K)

 VISC,MILLIPOISE  0.11981  0.12158  0.12334  0.12509  0.08974  0.09174  0.09372  0.09568

  WITH EQUILIBRIUM REACTIONS

 Cp, KJ/(KG)(K)   14.5028  14.5051  14.5073  14.5094  14.3109  14.3423  14.3693  14.3923
 CONDUCTIVITY      2.5254   2.5626   2.5997   2.6365   1.8781   1.9236   1.9680   2.0115
 PRANDTL NUMBER    0.6880   0.6882   0.6883   0.6884   0.6838   0.6840   0.6843   0.6846

  WITH FROZEN REACTIONS

 Cp, KJ/(KG)(K)   14.5028  14.5051  14.5073  14.5094  14.3109  14.3423  14.3693  14.3923
 CONDUCTIVITY      2.5254   2.5626   2.5997   2.6365   1.8781   1.9236   1.9680   2.0115
 PRANDTL NUMBER    0.6880   0.6882   0.6883   0.6884   0.6838   0.6840   0.6843   0.6846

 MASS FRACTIONS

 *H2              1.00000  1.00000  1.00000  1.00000  1.00000  1.00000  1.00000  1.00000

  * THERMODYNAMIC PROPERTIES FITTED TO 20000.K

 NOTE. WEIGHT FRACTION OF FUEL IN TOTAL FUELS AND OF OXIDANT IN TOTAL OXIDANTS









               THERMODYNAMIC EQUILIBRIUM PROPERTIES AT ASSIGNED

                           TEMPERATURE AND PRESSURE

 CASE =                

             REACTANT                    WT FRACTION      ENERGY      TEMP
                                          (SEE NOTE)     KJ/KG-MOL      K  
 FUEL        H2                           1.0000000         0.000      0.000
 OXIDANT     H2                           1.0000000         0.000      0.000

 O/F=    1.00000  %FUEL= 50.000000  R,EQ.RATIO= 0.000000  PHI,EQ.RATIO=-1.000000

 THERMODYNAMIC PROPERTIES

 P, BAR            80.000   80.000   80.000   80.000   80.000   80.000   80.000   80.000
 T, K              340.00   350.00   360.00   370.00   380.00   390.00   400.00   410.00
 RHO, KG/CU M    5.7048 0 5.5418 0 5.3879 0 5.2422 0 5.1043 0 4.9734 0 4.8491 0 4.7308 0
 H, KJ/KG          601.14   745.34   889.70  1034.19  1178.78  1323.47  1468.23  1613.06
 U, KJ/KG         -801.20  -698.24  -595.12  -491.88  -388.53  -285.09  -181.57  -77.991
 G, KJ/KG        -15936.0 -16424.5 -16917.1 -17413.7 -17914.2 -18418.6 -18926.6 -19438.3
 S, KJ/(KG)(K)    48.6386  49.0567  49.4633  49.8592  50.2448  50.6206  50.9872  51.3448

 M, (1/n)           2.016    2.016    2.016    2.016    2.016    2.016    2.016    2.016
 (dLV/dLP)t      -1.00000 -1.00000 -1.00000 -1.00000 -1.00000 -1.00000 -1.00000 -1.00000
 (dLV/dLT)p        1.0000   1.0000   1.0000   1.0000   1.0000   1.0000   1.0000   1.0000
 Cp, KJ/(KG)(K)   14.4120  14.4286  14.4427  14.4545  14.4644  14.4726  14.4795  14.4852
 GAMMAs            1.4009   1.4003   1.3997   1.3993   1.3989   1.3986   1.3983   1.3981
 SON VEL,M/SEC     1401.6   1421.8   1441.6   1461.3   1480.7   1499.9   1518.9   1537.6

 TRANSPORT PROPERTIES (GASES ONLY)
   CONDUCTIVITY IN UNITS OF MILLIWATTS/(CM)(K)

 VISC,MILLIPOISE  0.09763  0.09955  0.10146  0.10336  0.10524  0.10710  0.10895  0.11079

  WITH EQUILIBRIUM REACTIONS

 Cp, KJ/(KG)(K)   14.4120  14.4286  14.4427  14.4545  14.4644  14.4726  14.4795  14.4852
 CONDUCTIVITY      2.0541   2.0960   2.1373   2.1779   2.2180   2.2576   2.2969   2.3357
 PRANDTL NUMBER    0.6850   0.6853   0.6856   0.6860   0.6863   0.6866   0.6868   0.6871

  WITH FROZEN REACTIONS

 Cp, KJ/(KG)(K)   14.4120  14.4286  14.4427  14.4545  14.4644  14.4726  14.4795  14.4852
 CONDUCTIVITY      2.0541   2.0960   2.1373   2.1779   2.2180   2.2576   2.2969   2.3357
 PRANDTL NUMBER    0.6850   0.6853   0.6856   0.6860   0.6863   0.6866   0.6868   0.6871

 MASS FRACTIONS

 *H2              1.00000  1.00000  1.00000  1.00000  1.00000  1.00000  1.00000  1.00000

  * THERMODYNAMIC PROPERTIES FITTED TO 20000.K

 NOTE. WEIGHT FRACTION OF FUEL IN TOTAL FUELS AND OF OXIDANT IN TOTAL OXIDANTS









               THERMODYNAMIC EQUILIBRIUM PROPERTIES AT ASSIGNED

                           TEMPERATURE AND PRESSURE

 CASE =                

             REACTANT                    WT FRACTION      ENERGY      TEMP
                                          (SEE NOTE)     KJ/KG-MOL      K  
 FUEL        H2                           1.0000000         0.000      0.000
 OXIDANT     H2                           1.0000000         0.000      0.000

 O/F=    1.00000  %FUEL= 50.000000  R,EQ.RATIO= 0.000000  PHI,EQ.RATIO=-1.000000

 THERMODYNAMIC PROPERTIES

 P, BAR            80.000   80.000   80.000   80.000   80.000   80.000   80.000   80.000
 T, K              420.00   430.00   440.00   450.00   460.00   470.00   480.00   490.00
 RHO, KG/CU M    4.6182 0 4.5108 0 4.4082 0 4.3103 0 4.2166 0 4.1269 0 4.0409 0 3.9584 0
 H, KJ/KG         1757.93  1902.85  2047.81  2192.80  2337.81  2482.85  2627.91  2773.00
 U, KJ/KG          25.640   129.32   233.03   336.77   440.54   544.33   648.15   751.99
 G, KJ/KG        -19953.5 -20472.1 -20994.2 -21519.5 -22048.0 -22579.7 -23114.5 -23652.3
 S, KJ/(KG)(K)    51.6939  52.0349  52.3681  52.6940  53.0127  53.3246  53.6300  53.9292

 M, (1/n)           2.016    2.016    2.016    2.016    2.016    2.016    2.016    2.016
 (dLV/dLP)t      -1.00000 -1.00000 -1.00000 -1.00000 -1.00000 -1.00000 -1.00000 -1.00000
 (dLV/dLT)p        1.0000   1.0000   1.0000   1.0000   1.0000   1.0000   1.0000   1.0000
 Cp, KJ/(KG)(K)   14.4900  14.4939  14.4973  14.5002  14.5028  14.5051  14.5073  14.5094
 GAMMAs            1.3979   1.3978   1.3976   1.3975   1.3974   1.3973   1.3972   1.3972
 SON VEL,M/SEC     1556.1   1574.5   1592.6   1610.5   1628.3   1645.8   1663.2   1680.4

 TRANSPORT PROPERTIES (GASES ONLY)
   CONDUCTIVITY IN UNITS OF MILLIWATTS/(CM)(K)

 VISC,MILLIPOISE  0.11262  0.11443  0.11623  0.11803  0.11981  0.12158  0.12334  0.12509

  WITH EQUILIBRIUM REACTIONS

 Cp, KJ/(KG)(K)   14.4900  14.4939  14.4973  14.5002  14.5028  14.5051  14.5073  14.5094
 CONDUCTIVITY      2.3742   2.4124   2.4503   2.4880   2.5254   2.5626   2.5997   2.6365
 PRANDTL NUMBER    0.6873   0.6875   0.6877   0.6879   0.6880   0.6882   0.6883   0.6884

  WITH FROZEN REACTIONS

 Cp, KJ/(KG)(K)   14.4900  14.4939  14.4973  14.5002  14.5028  14.5051  14.5073  14.5094
 CONDUCTIVITY      2.3742   2.4124   2.4503   2.4880   2.5254   2.5626   2.5997   2.6365
 PRANDTL NUMBER    0.6873   0.6875   0.6877   0.6879   0.6880   0.6882   0.6883   0.6884

 MASS FRACTIONS

 *H2              1.00000  1.00000  1.00000  1.00000  1.00000  1.00000  1.00000  1.00000

  * THERMODYNAMIC PROPERTIES FITTED TO 20000.K

 NOTE. WEIGHT FRACTION OF FUEL IN TOTAL FUELS AND OF OXIDANT IN TOTAL OXIDANTS









               THERMODYNAMIC EQUILIBRIUM PROPERTIES AT ASSIGNED

                           TEMPERATURE AND PRESSURE

 CASE =                

             REACTANT                    WT FRACTION      ENERGY      TEMP
                                          (SEE NOTE)     KJ/KG-MOL      K  
 FUEL        H2                           1.0000000         0.000      0.000
 OXIDANT     H2                           1.0000000         0.000      0.000

 O/F=    1.00000  %FUEL= 50.000000  R,EQ.RATIO= 0.000000  PHI,EQ.RATIO=-1.000000

 THERMODYNAMIC PROPERTIES

 P, BAR            100.00   100.00   100.00   100.00   100.00   100.00   100.00   100.00
 T, K              300.00   310.00   320.00   330.00   340.00   350.00   360.00   370.00
 RHO, KG/CU M    8.0818 0 7.8211 0 7.5767 0 7.3471 0 7.1310 0 6.9272 0 6.7348 0 6.5528 0
 H, KJ/KG          26.469   169.74   313.30   457.11   601.14   745.34   889.70  1034.19
 U, KJ/KG        -1210.88 -1108.86 -1006.54  -903.98  -801.20  -698.24  -595.12  -491.88
 G, KJ/KG        -13749.6 -14211.2 -14677.4 -15148.0 -15623.1 -16102.4 -16585.8 -17073.2
 S, KJ/(KG)(K)    45.9202  46.3900  46.8458  47.2883  47.7183  48.1363  48.5430  48.9389

 M, (1/n)           2.016    2.016    2.016    2.016    2.016    2.016    2.016    2.016
 (dLV/dLP)t      -1.00000 -1.00000 -1.00000 -1.00000 -1.00000 -1.00000 -1.00000 -1.00000
 (dLV/dLT)p        1.0000   1.0000   1.0000   1.0000   1.0000   1.0000   1.0000   1.0000
 Cp, KJ/(KG)(K)   14.3109  14.3423  14.3693  14.3923  14.4120  14.4286  14.4427  14.4545
 GAMMAs            1.4049   1.4037   1.4026   1.4017   1.4009   1.4003   1.3997   1.3993
 SON VEL,M/SEC     1318.5   1339.7   1360.6   1381.2   1401.6   1421.8   1441.6   1461.3

 TRANSPORT PROPERTIES (GASES ONLY)
   CONDUCTIVITY IN UNITS OF MILLIWATTS/(CM)(K)

 VISC,MILLIPOISE  0.08974  0.09174  0.09372  0.09568  0.09763  0.09955  0.10146  0.10336

  WITH EQUILIBRIUM REACTIONS

 Cp, KJ/(KG)(K)   14.3109  14.3423  14.3693  14.3923  14.4120  14.4286  14.4427  14.4545
 CONDUCTIVITY      1.8781   1.9236   1.9680   2.0115   2.0541   2.0960   2.1373   2.1779
 PRANDTL NUMBER    0.6838   0.6840   0.6843   0.6846   0.6850   0.6853   0.6856   0.6860

  WITH FROZEN REACTIONS

 Cp, KJ/(KG)(K)   14.3109  14.3423  14.3693  14.3923  14.4120  14.4286  14.4427  14.4545
 CONDUCTIVITY      1.8781   1.9236   1.9680   2.0115   2.0541   2.0960   2.1373   2.1779
 PRANDTL NUMBER    0.6838   0.6840   0.6843   0.6846   0.6850   0.6853   0.6856   0.6860

 MASS FRACTIONS

 *H2              1.00000  1.00000  1.00000  1.00000  1.00000  1.00000  1.00000  1.00000

  * THERMODYNAMIC PROPERTIES FITTED TO 20000.K

 NOTE. WEIGHT FRACTION OF FUEL IN TOTAL FUELS AND OF OXIDANT IN TOTAL OXIDANTS









               THERMODYNAMIC EQUILIBRIUM PROPERTIES AT ASSIGNED

                           TEMPERATURE AND PRESSURE

 CASE =                

             REACTANT                    WT FRACTION      ENERGY      TEMP
                                          (SEE NOTE)     KJ/KG-MOL      K  
 FUEL        H2                           1.0000000         0.000      0.000
 OXIDANT     H2                           1.0000000         0.000      0.000

 O/F=    1.00000  %FUEL= 50.000000  R,EQ.RATIO= 0.000000  PHI,EQ.RATIO=-1.000000

 THERMODYNAMIC PROPERTIES

 P, BAR            100.00   100.00   100.00   100.00   100.00   100.00   100.00   100.00
 T, K              380.00   390.00   400.00   410.00   420.00   430.00   440.00   450.00
 RHO, KG/CU M    6.3803 0 6.2168 0 6.0613 0 5.9135 0 5.7727 0 5.6384 0 5.5103 0 5.3879 0
 H, KJ/KG         1178.78  1323.47  1468.23  1613.06  1757.93  1902.85  2047.81  2192.80
 U, KJ/KG         -388.53  -285.09  -181.57  -77.991   25.640   129.32   233.03   336.77
 G, KJ/KG        -17564.5 -18059.6 -18558.5 -19061.0 -19566.9 -20076.4 -20589.2 -21105.3
 S, KJ/(KG)(K)    49.3245  49.7003  50.0668  50.4244  50.7735  51.1145  51.4478  51.7736

 M, (1/n)           2.016    2.016    2.016    2.016    2.016    2.016    2.016    2.016
 (dLV/dLP)t      -1.00000 -1.00000 -1.00000 -1.00000 -1.00000 -1.00000 -1.00000 -1.00000
 (dLV/dLT)p        1.0000   1.0000   1.0000   1.0000   1.0000   1.0000   1.0000   1.0000
 Cp, KJ/(KG)(K)   14.4644  14.4726  14.4795  14.4852  14.4900  14.4939  14.4973  14.5002
 GAMMAs            1.3989   1.3986   1.3983   1.3981   1.3979   1.3978   1.3976   1.3975
 SON VEL,M/SEC     1480.7   1499.9   1518.9   1537.6   1556.1   1574.5   1592.6   1610.5

 TRANSPORT PROPERTIES (GASES ONLY)
   CONDUCTIVITY IN UNITS OF MILLIWATTS/(CM)(K)

 VISC,MILLIPOISE  0.10524  0.10710  0.10895  0.11079  0.11262  0.11443  0.11623  0.11803

  WITH EQUILIBRIUM REACTIONS

 Cp, KJ/(KG)(K)   14.4644  14.4726  14.4795  14.4852  14.4900  14.4939  14.4973  14.5002
 CONDUCTIVITY      2.2180   2.2576   2.2969   2.3357   2.3742   2.4124   2.4503   2.4880
 PRANDTL NUMBER    0.6863   0.6866   0.6868   0.6871   0.6873   0.6875   0.6877   0.6879

  WITH FROZEN REACTIONS

 Cp, KJ/(KG)(K)   14.4644  14.4726  14.4795  14.4852  14.4900  14.4939  14.4973  14.5002
 CONDUCTIVITY      2.2180   2.2576   2.2969   2.3357   2.3742   2.4124   2.4503   2.4880
 PRANDTL NUMBER    0.6863   0.6866   0.6868   0.6871   0.6873   0.6875   0.6877   0.6879

 MASS FRACTIONS

 *H2              1.00000  1.00000  1.00000  1.00000  1.00000  1.00000  1.00000  1.00000

  * THERMODYNAMIC PROPERTIES FITTED TO 20000.K

 NOTE. WEIGHT FRACTION OF FUEL IN TOTAL FUELS AND OF OXIDANT IN TOTAL OXIDANTS









               THERMODYNAMIC EQUILIBRIUM PROPERTIES AT ASSIGNED

                           TEMPERATURE AND PRESSURE

 CASE =                

             REACTANT                    WT FRACTION      ENERGY      TEMP
                                          (SEE NOTE)     KJ/KG-MOL      K  
 FUEL        H2                           1.0000000         0.000      0.000
 OXIDANT     H2                           1.0000000         0.000      0.000

 O/F=    1.00000  %FUEL= 50.000000  R,EQ.RATIO= 0.000000  PHI,EQ.RATIO=-1.000000

 THERMODYNAMIC PROPERTIES

 P, BAR            100.00   100.00   100.00   100.00   125.00   125.00   125.00   125.00
 T, K              460.00   470.00   480.00   490.00   300.00   310.00   320.00   330.00
 RHO, KG/CU M    5.2707 0 5.1586 0 5.0511 0 4.9480 0 1.0102 1 9.7763 0 9.4708 0 9.1838 0
 H, KJ/KG         2337.81  2482.85  2627.91  2773.00   26.469   169.74   313.30   457.11
 U, KJ/KG          440.54   544.33   648.15   751.99 -1210.88 -1108.86 -1006.54  -903.98
 G, KJ/KG        -21624.7 -22147.1 -22672.7 -23201.3 -13473.5 -13925.9 -14382.8 -14844.3
 S, KJ/(KG)(K)    52.0923  52.4043  52.7097  53.0088  44.9999  45.4697  45.9254  46.3680

 M, (1/n)           2.016    2.016    2.016    2.016    2.016    2.016    2.016    2.016
 (dLV/dLP)t      -1.00000 -1.00000 -1.00000 -1.00000 -1.00000 -1.00000 -1.00000 -1.00000
 (dLV/dLT)p        1.0000   1.0000   1.0000   1.0000   1.0000   1.0000   1.0000   1.0000
 Cp, KJ/(KG)(K)   14.5028  14.5051  14.5073  14.5094  14.3109  14.3423  14.3693  14.3923
 GAMMAs            1.3974   1.3973   1.3972   1.3972   1.4049   1.4037   1.4026   1.4017
 SON VEL,M/SEC     1628.3   1645.8   1663.2   1680.4   1318.5   1339.7   1360.6   1381.2

 TRANSPORT PROPERTIES (GASES ONLY)
   CONDUCTIVITY IN UNITS OF MILLIWATTS/(CM)(K)

 VISC,MILLIPOISE  0.11981  0.12158  0.12334  0.12509  0.08974  0.09174  0.09372  0.09568

  WITH EQUILIBRIUM REACTIONS

 Cp, KJ/(KG)(K)   14.5028  14.5051  14.5073  14.5094  14.3109  14.3423  14.3693  14.3923
 CONDUCTIVITY      2.5254   2.5626   2.5997   2.6365   1.8781   1.9236   1.9680   2.0115
 PRANDTL NUMBER    0.6880   0.6882   0.6883   0.6884   0.6838   0.6840   0.6843   0.6846

  WITH FROZEN REACTIONS

 Cp, KJ/(KG)(K)   14.5028  14.5051  14.5073  14.5094  14.3109  14.3423  14.3693  14.3923
 CONDUCTIVITY      2.5254   2.5626   2.5997   2.6365   1.8781   1.9236   1.9680   2.0115
 PRANDTL NUMBER    0.6880   0.6882   0.6883   0.6884   0.6838   0.6840   0.6843   0.6846

 MASS FRACTIONS

 *H2              1.00000  1.00000  1.00000  1.00000  1.00000  1.00000  1.00000  1.00000

  * THERMODYNAMIC PROPERTIES FITTED TO 20000.K

 NOTE. WEIGHT FRACTION OF FUEL IN TOTAL FUELS AND OF OXIDANT IN TOTAL OXIDANTS









               THERMODYNAMIC EQUILIBRIUM PROPERTIES AT ASSIGNED

                           TEMPERATURE AND PRESSURE

 CASE =                

             REACTANT                    WT FRACTION      ENERGY      TEMP
                                          (SEE NOTE)     KJ/KG-MOL      K  
 FUEL        H2                           1.0000000         0.000      0.000
 OXIDANT     H2                           1.0000000         0.000      0.000

 O/F=    1.00000  %FUEL= 50.000000  R,EQ.RATIO= 0.000000  PHI,EQ.RATIO=-1.000000

 THERMODYNAMIC PROPERTIES

 P, BAR            125.00   125.00   125.00   125.00   125.00   125.00   125.00   125.00
 T, K              340.00   350.00   360.00   370.00   380.00   390.00   400.00   410.00
 RHO, KG/CU M    8.9137 0 8.6590 0 8.4185 0 8.1910 0 7.9754 0 7.7709 0 7.5767 0 7.3919 0
 H, KJ/KG          601.14   745.34   889.70  1034.19  1178.78  1323.47  1468.23  1613.06
 U, KJ/KG         -801.20  -698.24  -595.12  -491.88  -388.53  -285.09  -181.57  -77.991
 G, KJ/KG        -15310.2 -15780.2 -16254.4 -16732.7 -17214.8 -17700.7 -18190.3 -18683.6
 S, KJ/(KG)(K)    46.7979  47.2159  47.6226  48.0185  48.4041  48.7799  49.1464  49.5040

 M, (1/n)           2.016    2.016    2.016    2.016    2.016    2.016    2.016    2.016
 (dLV/dLP)t      -1.00000 -1.00000 -1.00000 -1.00000 -1.00000 -1.00000 -1.00000 -1.00000
 (dLV/dLT)p        1.0000   1.0000   1.0000   1.0000   1.0000   1.0000   1.0000   1.0000
 Cp, KJ/(KG)(K)   14.4120  14.4286  14.4427  14.4545  14.4644  14.4726  14.4795  14.4852
 GAMMAs            1.4009   1.4003   1.3997   1.3993   1.3989   1.3986   1.3983   1.3981
 SON VEL,M/SEC     1401.6   1421.8   1441.6   1461.3   1480.7   1499.9   1518.9   1537.6

 TRANSPORT PROPERTIES (GASES ONLY)
   CONDUCTIVITY IN UNITS OF MILLIWATTS/(CM)(K)

 VISC,MILLIPOISE  0.09763  0.09955  0.10146  0.10336  0.10524  0.10710  0.10895  0.11079

  WITH EQUILIBRIUM REACTIONS

 Cp, KJ/(KG)(K)   14.4120  14.4286  14.4427  14.4545  14.4644  14.4726  14.4795  14.4852
 CONDUCTIVITY      2.0541   2.0960   2.1373   2.1779   2.2180   2.2576   2.2969   2.3357
 PRANDTL NUMBER    0.6850   0.6853   0.6856   0.6860   0.6863   0.6866   0.6868   0.6871

  WITH FROZEN REACTIONS

 Cp, KJ/(KG)(K)   14.4120  14.4286  14.4427  14.4545  14.4644  14.4726  14.4795  14.4852
 CONDUCTIVITY      2.0541   2.0960   2.1373   2.1779   2.2180   2.2576   2.2969   2.3357
 PRANDTL NUMBER    0.6850   0.6853   0.6856   0.6860   0.6863   0.6866   0.6868   0.6871

 MASS FRACTIONS

 *H2              1.00000  1.00000  1.00000  1.00000  1.00000  1.00000  1.00000  1.00000

  * THERMODYNAMIC PROPERTIES FITTED TO 20000.K

 NOTE. WEIGHT FRACTION OF FUEL IN TOTAL FUELS AND OF OXIDANT IN TOTAL OXIDANTS









               THERMODYNAMIC EQUILIBRIUM PROPERTIES AT ASSIGNED

                           TEMPERATURE AND PRESSURE

 CASE =                

             REACTANT                    WT FRACTION      ENERGY      TEMP
[...]

 VISC,MILLIPOISE  0.11981  0.12158  0.12334  0.12509  0.08974  0.09174  0.09372  0.09568

  WITH EQUILIBRIUM REACTIONS

 Cp, KJ/(KG)(K)   14.5028  14.5051  14.5073  14.5094  14.3109  14.3423  14.3693  14.3923
 CONDUCTIVITY      2.5254   2.5626   2.5997   2.6365   1.8781   1.9236   1.9680   2.0115
 PRANDTL NUMBER    0.6880   0.6882   0.6883   0.6884   0.6838   0.6840   0.6843   0.6846

  WITH FROZEN REACTIONS

 Cp, KJ/(KG)(K)   14.5028  14.5051  14.5073  14.5094  14.3109  14.3423  14.3693  14.3923
 CONDUCTIVITY      2.5254   2.5626   2.5997   2.6365   1.8781   1.9236   1.9680   2.0115
 PRANDTL NUMBER    0.6880   0.6882   0.6883   0.6884   0.6838   0.6840   0.6843   0.6846

 MASS FRACTIONS

 *H2              1.00000  1.00000  1.00000  1.00000  1.00000  1.00000  1.00000  1.00000

  * THERMODYNAMIC PROPERTIES FITTED TO 20000.K

 NOTE. WEIGHT FRACTION OF FUEL IN TOTAL FUELS AND OF OXIDANT IN TOTAL OXIDANTS









               THERMODYNAMIC EQUILIBRIUM PROPERTIES AT ASSIGNED

                           TEMPERATURE AND PRESSURE

 CASE =                

             REACTANT                    WT FRACTION      ENERGY      TEMP
                                          (SEE NOTE)     KJ/KG-MOL      K  
 FUEL        H2                           1.0000000         0.000      0.000
 OXIDANT     H2                           1.0000000         0.000      0.000

 O/F=    1.00000  %FUEL= 50.000000  R,EQ.RATIO= 0.000000  PHI,EQ.RATIO=-1.000000

 THERMODYNAMIC PROPERTIES

 P, BAR            500.00   500.00   500.00   500.00   500.00   500.00   500.00   500.00
 T, K              340.00   350.00   360.00   370.00   380.00   390.00   400.00   410.00
 RHO, KG/CU M    3.5655 1 3.4636 1 3.3674 1 3.2764 1 3.1902 1 3.1084 1 3.0307 1 2.9567 1
 H, KJ/KG          601.14   745.34   889.70  1034.19  1178.78  1323.47  1468.23  1613.06
 U, KJ/KG         -801.20  -698.24  -595.12  -491.88  -388.53  -285.09  -181.57  -77.991
 G, KJ/KG        -13366.1 -13779.0 -14196.0 -14617.1 -15042.0 -15470.8 -15903.2 -16339.3
 S, KJ/(KG)(K)    41.0801  41.4982  41.9048  42.3007  42.6863  43.0622  43.4287  43.7863

 M, (1/n)           2.016    2.016    2.016    2.016    2.016    2.016    2.016    2.016
 (dLV/dLP)t      -1.00000 -1.00000 -1.00000 -1.00000 -1.00000 -1.00000 -1.00000 -1.00000
 (dLV/dLT)p        1.0000   1.0000   1.0000   1.0000   1.0000   1.0000   1.0000   1.0000
 Cp, KJ/(KG)(K)   14.4120  14.4286  14.4427  14.4545  14.4644  14.4726  14.4795  14.4852
 GAMMAs            1.4009   1.4003   1.3997   1.3993   1.3989   1.3986   1.3983   1.3981
 SON VEL,M/SEC     1401.6   1421.8   1441.6   1461.3   1480.7   1499.9   1518.9   1537.6

 TRANSPORT PROPERTIES (GASES ONLY)
   CONDUCTIVITY IN UNITS OF MILLIWATTS/(CM)(K)

 VISC,MILLIPOISE  0.09763  0.09955  0.10146  0.10336  0.10524  0.10710  0.10895  0.11079

  WITH EQUILIBRIUM REACTIONS

 Cp, KJ/(KG)(K)   14.4120  14.4286  14.4427  14.4545  14.4644  14.4726  14.4795  14.4852
 CONDUCTIVITY      2.0541   2.0960   2.1373   2.1779   2.2180   2.2576   2.2969   2.3357
 PRANDTL NUMBER    0.6850   0.6853   0.6856   0.6860   0.6863   0.6866   0.6868   0.6871

  WITH FROZEN REACTIONS

 Cp, KJ/(KG)(K)   14.4120  14.4286  14.4427  14.4545  14.4644  14.4726  14.4795  14.4852
 CONDUCTIVITY      2.0541   2.0960   2.1373   2.1779   2.2180   2.2576   2.2969   2.3357
 PRANDTL NUMBER    0.6850   0.6853   0.6856   0.6860   0.6863   0.6866   0.6868   0.6871

 MASS FRACTIONS

 *H2              1.00000  1.00000  1.00000  1.00000  1.00000  1.00000  1.00000  1.00000

  * THERMODYNAMIC PROPERTIES FITTED TO 20000.K

 NOTE. WEIGHT FRACTION OF FUEL IN TOTAL FUELS AND OF OXIDANT IN TOTAL OXIDANTS









               THERMODYNAMIC EQUILIBRIUM PROPERTIES AT ASSIGNED

                           TEMPERATURE AND PRESSURE

 CASE =                

             REACTANT                    WT FRACTION      ENERGY      TEMP
                                          (SEE NOTE)     KJ/KG-MOL      K  
 FUEL        H2                           1.0000000         0.000      0.000
 OXIDANT     H2                           1.0000000         0.000      0.000

 O/F=    1.00000  %FUEL= 50.000000  R,EQ.RATIO= 0.000000  PHI,EQ.RATIO=-1.000000

 THERMODYNAMIC PROPERTIES

 P, BAR            500.00   500.00   500.00   500.00   500.00   500.00   500.00   500.00
 T, K              420.00   430.00   440.00   450.00   460.00   470.00   480.00   490.00
 RHO, KG/CU M    2.8863 1 2.8192 1 2.7552 1 2.6939 1 2.6354 1 2.5793 1 2.5256 1 2.4740 1
 H, KJ/KG         1757.93  1902.85  2047.81  2192.80  2337.81  2482.85  2627.91  2773.00
 U, KJ/KG          25.640   129.32   233.03   336.77   440.54   544.33   648.15   751.99
 G, KJ/KG        -16778.9 -17222.0 -17668.4 -18118.2 -18571.1 -19027.2 -19486.4 -19948.6
 S, KJ/(KG)(K)    44.1354  44.4764  44.8096  45.1355  45.4542  45.7661  46.0715  46.3707

 M, (1/n)           2.016    2.016    2.016    2.016    2.016    2.016    2.016    2.016
 (dLV/dLP)t      -1.00000 -1.00000 -1.00000 -1.00000 -1.00000 -1.00000 -1.00000 -1.00000
 (dLV/dLT)p        1.0000   1.0000   1.0000   1.0000   1.0000   1.0000   1.0000   1.0000
 Cp, KJ/(KG)(K)   14.4900  14.4939  14.4973  14.5002  14.5028  14.5051  14.5073  14.5094
 GAMMAs            1.3979   1.3978   1.3976   1.3975   1.3974   1.3973   1.3972   1.3972
 SON VEL,M/SEC     1556.1   1574.5   1592.6   1610.5   1628.3   1645.8   1663.2   1680.4

 TRANSPORT PROPERTIES (GASES ONLY)
   CONDUCTIVITY IN UNITS OF MILLIWATTS/(CM)(K)

 VISC,MILLIPOISE  0.11262  0.11443  0.11623  0.11803  0.11981  0.12158  0.12334  0.12509

  WITH EQUILIBRIUM REACTIONS

 Cp, KJ/(KG)(K)   14.4900  14.4939  14.4973  14.5002  14.5028  14.5051  14.5073  14.5094
 CONDUCTIVITY      2.3742   2.4124   2.4503   2.4880   2.5254   2.5626   2.5997   2.6365
 PRANDTL NUMBER    0.6873   0.6875   0.6877   0.6879   0.6880   0.6882   0.6883   0.6884

  WITH FROZEN REACTIONS

 Cp, KJ/(KG)(K)   14.4900  14.4939  14.4973  14.5002  14.5028  14.5051  14.5073  14.5094
 CONDUCTIVITY      2.3742   2.4124   2.4503   2.4880   2.5254   2.5626   2.5997   2.6365
 PRANDTL NUMBER    0.6873   0.6875   0.6877   0.6879   0.6880   0.6882   0.6883   0.6884

 MASS FRACTIONS

 *H2              1.00000  1.00000  1.00000  1.00000  1.00000  1.00000  1.00000  1.00000

  * THERMODYNAMIC PROPERTIES FITTED TO 20000.K

 NOTE. WEIGHT FRACTION OF FUEL IN TOTAL FUELS AND OF OXIDANT IN TOTAL OXIDANTS









               THERMODYNAMIC EQUILIBRIUM PROPERTIES AT ASSIGNED

                           TEMPERATURE AND PRESSURE

 CASE =                

             REACTANT                    WT FRACTION      ENERGY      TEMP
                                          (SEE NOTE)     KJ/KG-MOL      K  
 FUEL        H2                           1.0000000         0.000      0.000
 OXIDANT     H2                           1.0000000         0.000      0.000

 O/F=    1.00000  %FUEL= 50.000000  R,EQ.RATIO= 0.000000  PHI,EQ.RATIO=-1.000000

 THERMODYNAMIC PROPERTIES

 P, BAR            625.00   625.00   625.00   625.00   625.00   625.00   625.00   625.00
 T, K              300.00   310.00   320.00   330.00   340.00   350.00   360.00   370.00
 RHO, KG/CU M    5.0511 1 4.8882 1 4.7354 1 4.5919 1 4.4569 1 4.3295 1 4.2093 1 4.0955 1
 H, KJ/KG          26.469   169.74   313.30   457.11   601.14   745.34   889.70  1034.19
 U, KJ/KG        -1210.88 -1108.86 -1006.54  -903.98  -801.20  -698.24  -595.12  -491.88
 G, KJ/KG        -11482.1 -11868.0 -12258.6 -12653.7 -13053.2 -13456.9 -13864.7 -14276.5
 S, KJ/(KG)(K)    38.3617  38.8315  39.2873  39.7298  40.1598  40.5778  40.9845  41.3804

 M, (1/n)           2.016    2.016    2.016    2.016    2.016    2.016    2.016    2.016
 (dLV/dLP)t      -1.00000 -1.00000 -1.00000 -1.00000 -1.00000 -1.00000 -1.00000 -1.00000
 (dLV/dLT)p        1.0000   1.0000   1.0000   1.0000   1.0000   1.0000   1.0000   1.0000
 Cp, KJ/(KG)(K)   14.3109  14.3423  14.3693  14.3923  14.4120  14.4286  14.4427  14.4545
 GAMMAs            1.4049   1.4037   1.4026   1.4017   1.4009   1.4003   1.3997   1.3993
 SON VEL,M/SEC     1318.5   1339.7   1360.6   1381.2   1401.6   1421.8   1441.6   1461.3

 TRANSPORT PROPERTIES (GASES ONLY)
   CONDUCTIVITY IN UNITS OF MILLIWATTS/(CM)(K)

 VISC,MILLIPOISE  0.08974  0.09174  0.09372  0.09568  0.09763  0.09955  0.10146  0.10336

  WITH EQUILIBRIUM REACTIONS

 Cp, KJ/(KG)(K)   14.3109  14.3423  14.3693  14.3923  14.4120  14.4286  14.4427  14.4545
 CONDUCTIVITY      1.8781   1.9236   1.9680   2.0115   2.0541   2.0960   2.1373   2.1779
 PRANDTL NUMBER    0.6838   0.6840   0.6843   0.6846   0.6850   0.6853   0.6856   0.6860

  WITH FROZEN REACTIONS

 Cp, KJ/(KG)(K)   14.3109  14.3423  14.3693  14.3923  14.4120  14.4286  14.4427  14.4545
 CONDUCTIVITY      1.8781   1.9236   1.9680   2.0115   2.0541   2.0960   2.1373   2.1779
 PRANDTL NUMBER    0.6838   0.6840   0.6843   0.6846   0.6850   0.6853   0.6856   0.6860

 MASS FRACTIONS

 *H2              1.00000  1.00000  1.00000  1.00000  1.00000  1.00000  1.00000  1.00000

  * THERMODYNAMIC PROPERTIES FITTED TO 20000.K

 NOTE. WEIGHT FRACTION OF FUEL IN TOTAL FUELS AND OF OXIDANT IN TOTAL OXIDANTS









               THERMODYNAMIC EQUILIBRIUM PROPERTIES AT ASSIGNED

                           TEMPERATURE AND PRESSURE

 CASE =                

             REACTANT                    WT FRACTION      ENERGY      TEMP
                                          (SEE NOTE)     KJ/KG-MOL      K  
 FUEL        H2                           1.0000000         0.000      0.000
 OXIDANT     H2                           1.0000000         0.000      0.000

 O/F=    1.00000  %FUEL= 50.000000  R,EQ.RATIO= 0.000000  PHI,EQ.RATIO=-1.000000

 THERMODYNAMIC PROPERTIES

 P, BAR            625.00   625.00   625.00   625.00   625.00   625.00   625.00   625.00
 T, K              380.00   390.00   400.00   410.00   420.00   430.00   440.00   450.00
 RHO, KG/CU M    3.9877 1 3.8855 1 3.7883 1 3.6959 1 3.6079 1 3.5240 1 3.4439 1 3.3674 1
 H, KJ/KG         1178.78  1323.47  1468.23  1613.06  1757.93  1902.85  2047.81  2192.80
 U, KJ/KG         -388.53  -285.09  -181.57  -77.991   25.640   129.32   233.03   336.77
 G, KJ/KG        -14692.3 -15111.8 -15535.1 -15962.0 -16392.4 -16826.2 -17263.5 -17704.0
 S, KJ/(KG)(K)    41.7660  42.1418  42.5083  42.8659  43.2150  43.5560  43.8893  44.2151

 M, (1/n)           2.016    2.016    2.016    2.016    2.016    2.016    2.016    2.016
 (dLV/dLP)t      -1.00000 -1.00000 -1.00000 -1.00000 -1.00000 -1.00000 -1.00000 -1.00000
 (dLV/dLT)p        1.0000   1.0000   1.0000   1.0000   1.0000   1.0000   1.0000   1.0000
 Cp, KJ/(KG)(K)   14.4644  14.4726  14.4795  14.4852  14.4900  14.4939  14.4973  14.5002
 GAMMAs            1.3989   1.3986   1.3983   1.3981   1.3979   1.3978   1.3976   1.3975
 SON VEL,M/SEC     1480.7   1499.9   1518.9   1537.6   1556.1   1574.5   1592.6   1610.5

 TRANSPORT PROPERTIES (GASES ONLY)
   CONDUCTIVITY IN UNITS OF MILLIWATTS/(CM)(K)

 VISC,MILLIPOISE  0.10524  0.10710  0.10895  0.11079  0.11262  0.11443  0.11623  0.11803

  WITH EQUILIBRIUM REACTIONS

 Cp, KJ/(KG)(K)   14.4644  14.4726  14.4795  14.4852  14.4900  14.4939  14.4973  14.5002
 CONDUCTIVITY      2.2180   2.2576   2.2969   2.3357   2.3742   2.4124   2.4503   2.4880
 PRANDTL NUMBER    0.6863   0.6866   0.6868   0.6871   0.6873   0.6875   0.6877   0.6879

  WITH FROZEN REACTIONS

 Cp, KJ/(KG)(K)   14.4644  14.4726  14.4795  14.4852  14.4900  14.4939  14.4973  14.5002
 CONDUCTIVITY      2.2180   2.2576   2.2969   2.3357   2.3742   2.4124   2.4503   2.4880
 PRANDTL NUMBER    0.6863   0.6866   0.6868   0.6871   0.6873   0.6875   0.6877   0.6879

 MASS FRACTIONS

 *H2              1.00000  1.00000  1.00000  1.00000  1.00000  1.00000  1.00000  1.00000

  * THERMODYNAMIC PROPERTIES FITTED TO 20000.K

 NOTE. WEIGHT FRACTION OF FUEL IN TOTAL FUELS AND OF OXIDANT IN TOTAL OXIDANTS









               THERMODYNAMIC EQUILIBRIUM PROPERTIES AT ASSIGNED

                           TEMPERATURE AND PRESSURE

 CASE =                

             REACTANT                    WT FRACTION      ENERGY      TEMP
                                          (SEE NOTE)     KJ/KG-MOL      K  
 FUEL        H2                           1.0000000         0.000      0.000
 OXIDANT     H2                           1.0000000         0.000      0.000

 O/F=    1.00000  %FUEL= 50.000000  R,EQ.RATIO= 0.000000  PHI,EQ.RATIO=-1.000000

 THERMODYNAMIC PROPERTIES

 P, BAR            625.00   625.00   625.00   625.00   800.00   800.00   800.00   800.00
 T, K              460.00   470.00   480.00   490.00   300.00   310.00   320.00   330.00
 RHO, KG/CU M    3.2942 1 3.2241 1 3.1569 1 3.0925 1 6.4654 1 6.2569 1 6.0613 1 5.8777 1
 H, KJ/KG         2337.81  2482.85  2627.91  2773.00   26.469   169.74   313.30   457.11
 U, KJ/KG          440.54   544.33   648.15   751.99 -1210.88 -1108.86 -1006.54  -903.98
 G, KJ/KG        -18147.8 -18594.7 -19044.6 -19497.7 -11176.6 -11552.4 -11932.8 -12317.7
 S, KJ/(KG)(K)    44.5338  44.8458  45.1512  45.4503  37.3436  37.8133  38.2691  38.7117

 M, (1/n)           2.016    2.016    2.016    2.016    2.016    2.016    2.016    2.016
 (dLV/dLP)t      -1.00000 -1.00000 -1.00000 -1.00000 -1.00000 -1.00000 -1.00000 -1.00000
 (dLV/dLT)p        1.0000   1.0000   1.0000   1.0000   1.0000   1.0000   1.0000   1.0000
 Cp, KJ/(KG)(K)   14.5028  14.5051  14.5073  14.5094  14.3109  14.3423  14.3693  14.3923
 GAMMAs            1.3974   1.3973   1.3972   1.3972   1.4049   1.4037   1.4026   1.4017
 SON VEL,M/SEC     1628.3   1645.8   1663.2   1680.4   1318.5   1339.7   1360.6   1381.2

 TRANSPORT PROPERTIES (GASES ONLY)
   CONDUCTIVITY IN UNITS OF MILLIWATTS/(CM)(K)

 VISC,MILLIPOISE  0.11981  0.12158  0.12334  0.12509  0.08974  0.09174  0.09372  0.09568

  WITH EQUILIBRIUM REACTIONS

 Cp, KJ/(KG)(K)   14.5028  14.5051  14.5073  14.5094  14.3109  14.3423  14.3693  14.3923
 CONDUCTIVITY      2.5254   2.5626   2.5997   2.6365   1.8781   1.9236   1.9680   2.0115
 PRANDTL NUMBER    0.6880   0.6882   0.6883   0.6884   0.6838   0.6840   0.6843   0.6846

  WITH FROZEN REACTIONS

 Cp, KJ/(KG)(K)   14.5028  14.5051  14.5073  14.5094  14.3109  14.3423  14.3693  14.3923
 CONDUCTIVITY      2.5254   2.5626   2.5997   2.6365   1.8781   1.9236   1.9680   2.0115
 PRANDTL NUMBER    0.6880   0.6882   0.6883   0.6884   0.6838   0.6840   0.6843   0.6846

 MASS FRACTIONS

 *H2              1.00000  1.00000  1.00000  1.00000  1.00000  1.00000  1.00000  1.00000

  * THERMODYNAMIC PROPERTIES FITTED TO 20000.K

 NOTE. WEIGHT FRACTION OF FUEL IN TOTAL FUELS AND OF OXIDANT IN TOTAL OXIDANTS









               THERMODYNAMIC EQUILIBRIUM PROPERTIES AT ASSIGNED

                           TEMPERATURE AND PRESSURE

 CASE =                

             REACTANT                    WT FRACTION      ENERGY      TEMP
                                          (SEE NOTE)     KJ/KG-MOL      K  
 FUEL        H2                           1.0000000         0.000      0.000
 OXIDANT     H2                           1.0000000         0.000      0.000

 O/F=    1.00000  %FUEL= 50.000000  R,EQ.RATIO= 0.000000  PHI,EQ.RATIO=-1.000000

 THERMODYNAMIC PROPERTIES

 P, BAR            800.00   800.00   800.00   800.00   800.00   800.00   800.00   800.00
 T, K              340.00   350.00   360.00   370.00   380.00   390.00   400.00   410.00
 RHO, KG/CU M    5.7048 1 5.5418 1 5.3879 1 5.2422 1 5.1043 1 4.9734 1 4.8491 1 4.7308 1
 H, KJ/KG          601.14   745.34   889.70  1034.19  1178.78  1323.47  1468.23  1613.06
 U, KJ/KG         -801.20  -698.24  -595.12  -491.88  -388.53  -285.09  -181.57  -77.991
 G, KJ/KG        -12707.0 -13100.5 -13498.2 -13899.8 -14305.4 -14714.7 -15127.8 -15544.5
 S, KJ/(KG)(K)    39.1416  39.5596  39.9663  40.3622  40.7478  41.1236  41.4901  41.8477

 M, (1/n)           2.016    2.016    2.016    2.016    2.016    2.016    2.016    2.016
 (dLV/dLP)t      -1.00000 -1.00000 -1.00000 -1.00000 -1.00000 -1.00000 -1.00000 -1.00000
 (dLV/dLT)p        1.0000   1.0000   1.0000   1.0000   1.0000   1.0000   1.0000   1.0000
 Cp, KJ/(KG)(K)   14.4120  14.4286  14.4427  14.4545  14.4644  14.4726  14.4795  14.4852
 GAMMAs            1.4009   1.4003   1.3997   1.3993   1.3989   1.3986   1.3983   1.3981
 SON VEL,M/SEC     1401.6   1421.8   1441.6   1461.3   1480.7   1499.9   1518.9   1537.6

 TRANSPORT PROPERTIES (GASES ONLY)
   CONDUCTIVITY IN UNITS OF MILLIWATTS/(CM)(K)

 VISC,MILLIPOISE  0.09763  0.09955  0.10146  0.10336  0.10524  0.10710  0.10895  0.11079

  WITH EQUILIBRIUM REACTIONS

 Cp, KJ/(KG)(K)   14.4120  14.4286  14.4427  14.4545  14.4644  14.4726  14.4795  14.4852
 CONDUCTIVITY      2.0541   2.0960   2.1373   2.1779   2.2180   2.2576   2.2969   2.3357
 PRANDTL NUMBER    0.6850   0.6853   0.6856   0.6860   0.6863   0.6866   0.6868   0.6871

  WITH FROZEN REACTIONS

 Cp, KJ/(KG)(K)   14.4120  14.4286  14.4427  14.4545  14.4644  14.4726  14.4795  14.4852
 CONDUCTIVITY      2.0541   2.0960   2.1373   2.1779   2.2180   2.2576   2.2969   2.3357
 PRANDTL NUMBER    0.6850   0.6853   0.6856   0.6860   0.6863   0.6866   0.6868   0.6871

 MASS FRACTIONS

 *H2              1.00000  1.00000  1.00000  1.00000  1.00000  1.00000  1.00000  1.00000

  * THERMODYNAMIC PROPERTIES FITTED TO 20000.K

 NOTE. WEIGHT FRACTION OF FUEL IN TOTAL FUELS AND OF OXIDANT IN TOTAL OXIDANTS









               THERMODYNAMIC EQUILIBRIUM PROPERTIES AT ASSIGNED

                           TEMPERATURE AND PRESSURE

 CASE =                

             REACTANT                    WT FRACTION      ENERGY      TEMP
                                          (SEE NOTE)     KJ/KG-MOL      K  
 FUEL        H2                           1.0000000         0.000      0.000
 OXIDANT     H2                           1.0000000         0.000      0.000

 O/F=    1.00000  %FUEL= 50.000000  R,EQ.RATIO= 0.000000  PHI,EQ.RATIO=-1.000000

 THERMODYNAMIC PROPERTIES

 P, BAR            800.00   800.00   800.00   800.00   800.00   800.00   800.00   800.00
 T, K              420.00   430.00   440.00   450.00   460.00   470.00   480.00   490.00
 RHO, KG/CU M    4.6182 1 4.5108 1 4.4082 1 4.3103 1 4.2166 1 4.1269 1 4.0409 1 3.9584 1
 H, KJ/KG         1757.93  1902.85  2047.81  2192.80  2337.81  2482.85  2627.91  2773.00
 U, KJ/KG          25.640   129.32   233.03   336.77   440.54   544.33   648.15   751.99
 G, KJ/KG        -15964.7 -16388.4 -16815.5 -17245.8 -17679.4 -18116.1 -18555.9 -18998.8
 S, KJ/(KG)(K)    42.1969  42.5379  42.8711  43.1969  43.5157  43.8276  44.1330  44.4321

 M, (1/n)           2.016    2.016    2.016    2.016    2.016    2.016    2.016    2.016
 (dLV/dLP)t      -1.00000 -1.00000 -1.00000 -1.00000 -1.00000 -1.00000 -1.00000 -1.00000
 (dLV/dLT)p        1.0000   1.0000   1.0000   1.0000   1.0000   1.0000   1.0000   1.0000
 Cp, KJ/(KG)(K)   14.4900  14.4939  14.4973  14.5002  14.5028  14.5051  14.5073  14.5094
 GAMMAs            1.3979   1.3978   1.3976   1.3975   1.3974   1.3973   1.3972   1.3972
 SON VEL,M/SEC     1556.1   1574.5   1592.6   1610.5   1628.3   1645.8   1663.2   1680.4

 TRANSPORT PROPERTIES (GASES ONLY)
   CONDUCTIVITY IN UNITS OF MILLIWATTS/(CM)(K)

 VISC,MILLIPOISE  0.11262  0.11443  0.11623  0.11803  0.11981  0.12158  0.12334  0.12509

  WITH EQUILIBRIUM REACTIONS

 Cp, KJ/(KG)(K)   14.4900  14.4939  14.4973  14.5002  14.5028  14.5051  14.5073  14.5094
 CONDUCTIVITY      2.3742   2.4124   2.4503   2.4880   2.5254   2.5626   2.5997   2.6365
 PRANDTL NUMBER    0.6873   0.6875   0.6877   0.6879   0.6880   0.6882   0.6883   0.6884

  WITH FROZEN REACTIONS

 Cp, KJ/(KG)(K)   14.4900  14.4939  14.4973  14.5002  14.5028  14.5051  14.5073  14.5094
 CONDUCTIVITY      2.3742   2.4124   2.4503   2.4880   2.5254   2.5626   2.5997   2.6365
 PRANDTL NUMBER    0.6873   0.6875   0.6877   0.6879   0.6880   0.6882   0.6883   0.6884

 MASS FRACTIONS

 *H2              1.00000  1.00000  1.00000  1.00000  1.00000  1.00000  1.00000  1.00000

  * THERMODYNAMIC PROPERTIES FITTED TO 20000.K

 NOTE. WEIGHT FRACTION OF FUEL IN TOTAL FUELS AND OF OXIDANT IN TOTAL OXIDANTS



  
