
 *******************************************************************************

         NASA-GLENN CHEMICAL EQUILIBRIUM PROGRAM CEA2, MAY 21, 2004
                   BY  BONNIE MCBRIDE AND SANFORD GORDON
      REFS: NASA RP-1311, PART I, 1994 AND NASA RP-1311, PART II, 1996

 *******************************************************************************



  prob tp ions
  p,bar= 0.54,0.6,0.67,0.74,0.825,0.91,1.0,1.1,1.2,1.32,1.48,1.65,1.8,2.0,2.25
  t,k= 6050,6060,6070,6080,6090,6100,6110,6120,6130,6140,6150,6160,6170,6180,6190
  
  
  reac
  fuel H2                wt%=100.0000
  oxid H2                wt%=100.0000
  
  output short
  
  output massf
  
  output siunits
  
  output transport
  
 end





               THERMODYNAMIC EQUILIBRIUM PROPERTIES AT ASSIGNED

                           TEMPERATURE AND PRESSURE

 CASE =                

             REACTANT                    WT FRACTION      ENERGY      TEMP
                                          (SEE NOTE)     KJ/KG-MOL      K  
 FUEL        H2                           1.0000000         0.000      0.000
 OXIDANT     H2                           1.0000000         0.000      0.000

 O/F=    1.00000  %FUEL= 50.000000  R,EQ.RATIO= 0.000000  PHI,EQ.RATIO=-1.000000

 THERMODYNAMIC PROPERTIES

 P, BAR           0.54000  0.54000  0.54000  0.54000  0.54000  0.54000  0.54000  0.54000
 T, K             6050.00  6060.00  6070.00  6080.00  6090.00  6100.00  6110.00  6120.00
 RHO, KG/CU M    1.0839-3 1.0821-3 1.0803-3 1.0785-3 1.0767-3 1.0749-3 1.0731-3 1.0713-3
 H, KJ/KG        334171.2 334393.5 334615.5 334837.3 335059.0 335280.6 335502.0 335723.2
 U, KJ/KG        284353.0 284491.3 284629.5 284767.6 284905.5 285043.2 285180.9 285318.3
 G, KJ/KG       -760104.0-761912.9-763722.2-765531.8-767341.8-769152.2-770962.9-772774.0
 S, KJ/(KG)(K)   180.8719 180.9086 180.9453 180.9818 181.0182 181.0546 181.0908 181.1270

 M, (1/n)           1.010    1.010    1.010    1.010    1.010    1.010    1.010    1.010
 (dLV/dLP)t      -1.00190 -1.00187 -1.00185 -1.00182 -1.00179 -1.00177 -1.00175 -1.00172
 (dLV/dLT)p        1.0184   1.0182   1.0179   1.0177   1.0174   1.0172   1.0170   1.0168
 Cp, KJ/(KG)(K)   22.2298  22.2118  22.1944  22.1777  22.1616  22.1461  22.1311  22.1168
 GAMMAs            1.6189   1.6193   1.6197   1.6201   1.6204   1.6208   1.6211   1.6214
 SON VEL,M/SEC     8980.6   8989.3   8997.9   9006.5   9015.0   9023.5   9031.9   9040.3

 TRANSPORT PROPERTIES (GASES ONLY)
   CONDUCTIVITY IN UNITS OF MILLIWATTS/(CM)(K)

 VISC,MILLIPOISE  0.64069  0.64159  0.64249  0.64340  0.64430  0.64521  0.64611  0.64702

  WITH EQUILIBRIUM REACTIONS

 Cp, KJ/(KG)(K)   22.2298  22.2118  22.1944  22.1777  22.1616  22.1461  22.1311  22.1168
 CONDUCTIVITY     21.4001  21.4041  21.4085  21.4136  21.4191  21.4252  21.4318  21.4389
 PRANDTL NUMBER    0.6655   0.6658   0.6661   0.6664   0.6666   0.6669   0.6672   0.6675

  WITH FROZEN REACTIONS

 Cp, KJ/(KG)(K)   20.6214  20.6207  20.6201  20.6196  20.6190  20.6185  20.6180  20.6176
 CONDUCTIVITY     19.8018  19.8306  19.8593  19.8881  19.9169  19.9458  19.9746  20.0035
 PRANDTL NUMBER    0.6672   0.6672   0.6671   0.6671   0.6670   0.6670   0.6669   0.6669

 MASS FRACTIONS

 *H               0.99619  0.99624  0.99630  0.99635  0.99640  0.99645  0.99650  0.99655
 *H+              0.00009  0.00009  0.00009  0.00010  0.00010  0.00010  0.00010  0.00011
 *H2              0.00372  0.00366  0.00361  0.00355  0.00350  0.00345  0.00340  0.00335

  * THERMODYNAMIC PROPERTIES FITTED TO 20000.K

 NOTE. WEIGHT FRACTION OF FUEL IN TOTAL FUELS AND OF OXIDANT IN TOTAL OXIDANTS









               THERMODYNAMIC EQUILIBRIUM PROPERTIES AT ASSIGNED

                           TEMPERATURE AND PRESSURE

 CASE =                

             REACTANT                    WT FRACTION      ENERGY      TEMP
                                          (SEE NOTE)     KJ/KG-MOL      K  
 FUEL        H2                           1.0000000         0.000      0.000
 OXIDANT     H2                           1.0000000         0.000      0.000

 O/F=    1.00000  %FUEL= 50.000000  R,EQ.RATIO= 0.000000  PHI,EQ.RATIO=-1.000000

 THERMODYNAMIC PROPERTIES

 P, BAR           0.54000  0.54000  0.54000  0.54000  0.54000  0.54000  0.54000  0.60000
 T, K             6130.00  6140.00  6150.00  6160.00  6170.00  6180.00  6190.00  6050.00
 RHO, KG/CU M    1.0695-3 1.0678-3 1.0660-3 1.0643-3 1.0625-3 1.0608-3 1.0590-3 1.2046-3
 H, KJ/KG        335944.3 336165.3 336386.1 336606.8 336827.4 337047.9 337268.3 334069.9
 U, KJ/KG        285455.7 285593.0 285730.1 285867.1 286004.0 286140.9 286277.6 284262.1
 G, KJ/KG       -774585.5-776397.3-778209.4-780022.0-781834.9-783648.1-785461.7-754855.7
 S, KJ/(KG)(K)   181.1631 181.1991 181.2350 181.2709 181.3067 181.3424 181.3780 179.9877

 M, (1/n)           1.009    1.009    1.009    1.009    1.009    1.009    1.009    1.010
 (dLV/dLP)t      -1.00170 -1.00168 -1.00165 -1.00163 -1.00161 -1.00159 -1.00157 -1.00210
 (dLV/dLT)p        1.0165   1.0163   1.0161   1.0159   1.0157   1.0155   1.0154   1.0202
 Cp, KJ/(KG)(K)   22.1031  22.0899  22.0773  22.0652  22.0537  22.0427  22.0323  22.3570
 GAMMAs            1.6217   1.6220   1.6222   1.6225   1.6227   1.6229   1.6231   1.6160
 SON VEL,M/SEC     9048.6   9056.9   9065.1   9073.2   9081.3   9089.4   9097.4   8971.6

 TRANSPORT PROPERTIES (GASES ONLY)
   CONDUCTIVITY IN UNITS OF MILLIWATTS/(CM)(K)

 VISC,MILLIPOISE  0.64793  0.64884  0.64974  0.65065  0.65156  0.65247  0.65338  0.64099

  WITH EQUILIBRIUM REACTIONS

 Cp, KJ/(KG)(K)   22.1031  22.0899  22.0773  22.0652  22.0537  22.0427  22.0323  22.3570
 CONDUCTIVITY     21.4465  21.4545  21.4631  21.4721  21.4815  21.4914  21.5017  21.5725
 PRANDTL NUMBER    0.6678   0.6681   0.6683   0.6686   0.6689   0.6692   0.6695   0.6643

  WITH FROZEN REACTIONS

 Cp, KJ/(KG)(K)   20.6172  20.6168  20.6164  20.6160  20.6157  20.6154  20.6152  20.6214
 CONDUCTIVITY     20.0324  20.0613  20.0903  20.1192  20.1482  20.1772  20.2062  19.8069
 PRANDTL NUMBER    0.6668   0.6668   0.6668   0.6667   0.6667   0.6666   0.6666   0.6673

 MASS FRACTIONS

 *H               0.99659  0.99664  0.99668  0.99673  0.99677  0.99681  0.99685  0.99578
 *H+              0.00011  0.00011  0.00011  0.00012  0.00012  0.00012  0.00013  0.00009
 *H2              0.00330  0.00325  0.00320  0.00316  0.00311  0.00306  0.00302  0.00413

  * THERMODYNAMIC PROPERTIES FITTED TO 20000.K

 NOTE. WEIGHT FRACTION OF FUEL IN TOTAL FUELS AND OF OXIDANT IN TOTAL OXIDANTS









               THERMODYNAMIC EQUILIBRIUM PROPERTIES AT ASSIGNED

                           TEMPERATURE AND PRESSURE

 CASE =                

             REACTANT                    WT FRACTION      ENERGY      TEMP
                                          (SEE NOTE)     KJ/KG-MOL      K  
 FUEL        H2                           1.0000000         0.000      0.000
 OXIDANT     H2                           1.0000000         0.000      0.000

 O/F=    1.00000  %FUEL= 50.000000  R,EQ.RATIO= 0.000000  PHI,EQ.RATIO=-1.000000

 THERMODYNAMIC PROPERTIES

 P, BAR           0.60000  0.60000  0.60000  0.60000  0.60000  0.60000  0.60000  0.60000
 T, K             6060.00  6070.00  6080.00  6090.00  6100.00  6110.00  6120.00  6130.00
 RHO, KG/CU M    1.2026-3 1.2006-3 1.1986-3 1.1966-3 1.1946-3 1.1926-3 1.1906-3 1.1886-3
 H, KJ/KG        334293.4 334516.6 334739.7 334962.6 335185.2 335407.7 335630.1 335852.2
 U, KJ/KG        284401.6 284540.9 284680.0 284819.0 284957.7 285096.4 285234.8 285373.1
 G, KJ/KG       -756655.7-758456.2-760257.0-762058.1-763859.7-765661.6-767463.8-769266.4
 S, KJ/(KG)(K)   180.0246 180.0614 180.0981 180.1348 180.1713 180.2077 180.2441 180.2804

 M, (1/n)           1.010    1.010    1.010    1.010    1.010    1.010    1.010    1.010
 (dLV/dLP)t      -1.00207 -1.00204 -1.00201 -1.00198 -1.00196 -1.00193 -1.00190 -1.00188
 (dLV/dLT)p        1.0199   1.0197   1.0194   1.0191   1.0189   1.0186   1.0184   1.0181
 Cp, KJ/(KG)(K)   22.3361  22.3158  22.2963  22.2774  22.2592  22.2416  22.2246  22.2083
 GAMMAs            1.6165   1.6170   1.6174   1.6178   1.6182   1.6186   1.6190   1.6194
 SON VEL,M/SEC     8980.5   8989.4   8998.1   9006.9   9015.5   9024.2   9032.7   9041.2

 TRANSPORT PROPERTIES (GASES ONLY)
   CONDUCTIVITY IN UNITS OF MILLIWATTS/(CM)(K)

 VISC,MILLIPOISE  0.64189  0.64279  0.64369  0.64459  0.64550  0.64640  0.64731  0.64821

  WITH EQUILIBRIUM REACTIONS

 Cp, KJ/(KG)(K)   22.3361  22.3158  22.2963  22.2774  22.2592  22.2416  22.2246  22.2083
 CONDUCTIVITY     21.5735  21.5751  21.5773  21.5801  21.5834  21.5873  21.5918  21.5968
 PRANDTL NUMBER    0.6646   0.6649   0.6651   0.6654   0.6657   0.6660   0.6663   0.6666

  WITH FROZEN REACTIONS

 Cp, KJ/(KG)(K)   20.6207  20.6201  20.6196  20.6190  20.6185  20.6180  20.6176  20.6171
 CONDUCTIVITY     19.8356  19.8643  19.8930  19.9218  19.9506  19.9794  20.0082  20.0371
 PRANDTL NUMBER    0.6673   0.6672   0.6672   0.6672   0.6671   0.6671   0.6670   0.6670

 MASS FRACTIONS

 *H               0.99584  0.99590  0.99596  0.99602  0.99607  0.99613  0.99618  0.99623
 *H+              0.00009  0.00009  0.00009  0.00009  0.00010  0.00010  0.00010  0.00010
 *H2              0.00407  0.00401  0.00395  0.00389  0.00383  0.00377  0.00372  0.00366

  * THERMODYNAMIC PROPERTIES FITTED TO 20000.K

 NOTE. WEIGHT FRACTION OF FUEL IN TOTAL FUELS AND OF OXIDANT IN TOTAL OXIDANTS









               THERMODYNAMIC EQUILIBRIUM PROPERTIES AT ASSIGNED

                           TEMPERATURE AND PRESSURE

 CASE =                

             REACTANT                    WT FRACTION      ENERGY      TEMP
                                          (SEE NOTE)     KJ/KG-MOL      K  
 FUEL        H2                           1.0000000         0.000      0.000
 OXIDANT     H2                           1.0000000         0.000      0.000

 O/F=    1.00000  %FUEL= 50.000000  R,EQ.RATIO= 0.000000  PHI,EQ.RATIO=-1.000000

 THERMODYNAMIC PROPERTIES

 P, BAR           0.60000  0.60000  0.60000  0.60000  0.60000  0.60000  0.67000  0.67000
 T, K             6140.00  6150.00  6160.00  6170.00  6180.00  6190.00  6050.00  6060.00
 RHO, KG/CU M    1.1866-3 1.1847-3 1.1827-3 1.1808-3 1.1788-3 1.1769-3 1.3455-3 1.3432-3
 H, KJ/KG        336074.2 336296.1 336517.8 336739.3 336960.8 337182.1 333953.0 334177.9
 U, KJ/KG        285511.3 285649.4 285787.3 285925.0 286062.7 286200.2 284157.4 284298.2
 G, KJ/KG       -771069.4-772872.8-774676.5-776480.6-778285.0-780089.8-749360.2-751150.9
 S, KJ/(KG)(K)   180.3166 180.3527 180.3887 180.4246 180.4605 180.4963 179.0600 179.0972

 M, (1/n)           1.010    1.010    1.010    1.010    1.010    1.010    1.010    1.010
 (dLV/dLP)t      -1.00185 -1.00183 -1.00180 -1.00178 -1.00175 -1.00173 -1.00233 -1.00230
 (dLV/dLT)p        1.0179   1.0176   1.0174   1.0172   1.0170   1.0168   1.0224   1.0220
 Cp, KJ/(KG)(K)   22.1925  22.1774  22.1628  22.1489  22.1355  22.1227  22.5077  22.4834
 GAMMAs            1.6197   1.6200   1.6203   1.6206   1.6209   1.6211   1.6126   1.6132
 SON VEL,M/SEC     9049.7   9058.1   9066.4   9074.7   9083.0   9091.1   8961.1   8970.2

 TRANSPORT PROPERTIES (GASES ONLY)
   CONDUCTIVITY IN UNITS OF MILLIWATTS/(CM)(K)

 VISC,MILLIPOISE  0.64912  0.65002  0.65093  0.65184  0.65274  0.65365  0.64134  0.64224

  WITH EQUILIBRIUM REACTIONS

 Cp, KJ/(KG)(K)   22.1925  22.1774  22.1628  22.1489  22.1355  22.1227  22.5077  22.4834
 CONDUCTIVITY     21.6023  21.6083  21.6149  21.6219  21.6295  21.6375  21.7736  21.7712
 PRANDTL NUMBER    0.6669   0.6671   0.6674   0.6677   0.6680   0.6683   0.6630   0.6632

  WITH FROZEN REACTIONS

 Cp, KJ/(KG)(K)   20.6167  20.6164  20.6160  20.6157  20.6154  20.6151  20.6214  20.6207
 CONDUCTIVITY     20.0659  20.0948  20.1237  20.1526  20.1816  20.2105  19.8128  19.8414
 PRANDTL NUMBER    0.6669   0.6669   0.6669   0.6668   0.6668   0.6667   0.6675   0.6675

 MASS FRACTIONS

 *H               0.99629  0.99634  0.99638  0.99643  0.99648  0.99653  0.99531  0.99538
 *H+              0.00011  0.00011  0.00011  0.00011  0.00012  0.00012  0.00008  0.00008
 *H2              0.00361  0.00356  0.00350  0.00345  0.00340  0.00335  0.00461  0.00454

  * THERMODYNAMIC PROPERTIES FITTED TO 20000.K

 NOTE. WEIGHT FRACTION OF FUEL IN TOTAL FUELS AND OF OXIDANT IN TOTAL OXIDANTS









               THERMODYNAMIC EQUILIBRIUM PROPERTIES AT ASSIGNED

                           TEMPERATURE AND PRESSURE

 CASE =                

             REACTANT                    WT FRACTION      ENERGY      TEMP
                                          (SEE NOTE)     KJ/KG-MOL      K  
 FUEL        H2                           1.0000000         0.000      0.000
 OXIDANT     H2                           1.0000000         0.000      0.000

 O/F=    1.00000  %FUEL= 50.000000  R,EQ.RATIO= 0.000000  PHI,EQ.RATIO=-1.000000

 THERMODYNAMIC PROPERTIES

 P, BAR           0.67000  0.67000  0.67000  0.67000  0.67000  0.67000  0.67000  0.67000
 T, K             6070.00  6080.00  6090.00  6100.00  6110.00  6120.00  6130.00  6140.00
 RHO, KG/CU M    1.3410-3 1.3387-3 1.3365-3 1.3342-3 1.3320-3 1.3298-3 1.3276-3 1.3254-3
 H, KJ/KG        334402.6 334627.1 334851.4 335075.4 335299.3 335522.9 335746.3 335969.6
 U, KJ/KG        284438.8 284579.2 284719.4 284859.4 284999.2 285138.8 285278.3 285417.6
 G, KJ/KG       -752942.1-754733.6-756525.5-758317.8-760110.4-761903.4-763696.8-765490.5
 S, KJ/(KG)(K)   179.1342 179.1712 179.2080 179.2448 179.2815 179.3180 179.3545 179.3909

 M, (1/n)           1.010    1.010    1.010    1.010    1.010    1.010    1.010    1.010
 (dLV/dLP)t      -1.00227 -1.00224 -1.00220 -1.00217 -1.00214 -1.00211 -1.00208 -1.00206
 (dLV/dLT)p        1.0217   1.0214   1.0211   1.0208   1.0205   1.0202   1.0200   1.0197
 Cp, KJ/(KG)(K)   22.4599  22.4372  22.4151  22.3938  22.3731  22.3532  22.3339  22.3152
 GAMMAs            1.6137   1.6142   1.6147   1.6152   1.6157   1.6161   1.6166   1.6170
 SON VEL,M/SEC     8979.3   8988.3   8997.2   9006.1   9014.9   9023.7   9032.4   9041.1

 TRANSPORT PROPERTIES (GASES ONLY)
   CONDUCTIVITY IN UNITS OF MILLIWATTS/(CM)(K)

 VISC,MILLIPOISE  0.64313  0.64403  0.64493  0.64583  0.64673  0.64763  0.64853  0.64944

  WITH EQUILIBRIUM REACTIONS

 Cp, KJ/(KG)(K)   22.4599  22.4372  22.4151  22.3938  22.3731  22.3532  22.3339  22.3152
 CONDUCTIVITY     21.7694  21.7683  21.7679  21.7681  21.7689  21.7703  21.7723  21.7748
 PRANDTL NUMBER    0.6635   0.6638   0.6641   0.6644   0.6647   0.6650   0.6653   0.6656

  WITH FROZEN REACTIONS

 Cp, KJ/(KG)(K)   20.6201  20.6196  20.6190  20.6185  20.6180  20.6176  20.6171  20.6167
 CONDUCTIVITY     19.8701  19.8987  19.9274  19.9561  19.9849  20.0136  20.0424  20.0712
 PRANDTL NUMBER    0.6674   0.6674   0.6673   0.6673   0.6672   0.6672   0.6671   0.6671

 MASS FRACTIONS

 *H               0.99544  0.99551  0.99557  0.99563  0.99570  0.99576  0.99581  0.99587
 *H+              0.00009  0.00009  0.00009  0.00009  0.00009  0.00010  0.00010  0.00010
 *H2              0.00447  0.00440  0.00434  0.00427  0.00421  0.00415  0.00409  0.00403

  * THERMODYNAMIC PROPERTIES FITTED TO 20000.K

 NOTE. WEIGHT FRACTION OF FUEL IN TOTAL FUELS AND OF OXIDANT IN TOTAL OXIDANTS









               THERMODYNAMIC EQUILIBRIUM PROPERTIES AT ASSIGNED

                           TEMPERATURE AND PRESSURE

 CASE =                

             REACTANT                    WT FRACTION      ENERGY      TEMP
                                          (SEE NOTE)     KJ/KG-MOL      K  
 FUEL        H2                           1.0000000         0.000      0.000
 OXIDANT     H2                           1.0000000         0.000      0.000

 O/F=    1.00000  %FUEL= 50.000000  R,EQ.RATIO= 0.000000  PHI,EQ.RATIO=-1.000000

 THERMODYNAMIC PROPERTIES

 P, BAR           0.67000  0.67000  0.67000  0.67000  0.67000  0.74000  0.74000  0.74000
 T, K             6150.00  6160.00  6170.00  6180.00  6190.00  6050.00  6060.00  6070.00
 RHO, KG/CU M    1.3232-3 1.3210-3 1.3188-3 1.3166-3 1.3145-3 1.4864-3 1.4839-3 1.4814-3
 H, KJ/KG        336192.6 336415.5 336638.2 336860.8 337083.2 333837.2 334063.6 334289.8
 U, KJ/KG        285556.7 285695.6 285834.4 285973.1 286111.6 284053.7 284195.9 284337.8
 G, KJ/KG       -767284.6-769079.0-770873.9-772669.0-774464.6-744412.4-746194.9-747977.6
 S, KJ/(KG)(K)   179.4272 179.4634 179.4995 179.5356 179.5715 178.2231 178.2605 178.2978

 M, (1/n)           1.010    1.010    1.010    1.010    1.010    1.010    1.010    1.010
 (dLV/dLP)t      -1.00203 -1.00200 -1.00197 -1.00195 -1.00192 -1.00257 -1.00253 -1.00250
 (dLV/dLT)p        1.0194   1.0192   1.0189   1.0187   1.0184   1.0245   1.0241   1.0238
 Cp, KJ/(KG)(K)   22.2972  22.2799  22.2631  22.2470  22.2314  22.6601  22.6327  22.6060
 GAMMAs            1.6174   1.6177   1.6181   1.6184   1.6188   1.6092   1.6098   1.6104
 SON VEL,M/SEC     9049.7   9058.3   9066.8   9075.2   9083.6   8950.5   8959.8   8969.1

 TRANSPORT PROPERTIES (GASES ONLY)
   CONDUCTIVITY IN UNITS OF MILLIWATTS/(CM)(K)

 VISC,MILLIPOISE  0.65034  0.65124  0.65215  0.65305  0.65396  0.64168  0.64258  0.64347

  WITH EQUILIBRIUM REACTIONS

 Cp, KJ/(KG)(K)   22.2972  22.2799  22.2631  22.2470  22.2314  22.6601  22.6327  22.6060
 CONDUCTIVITY     21.7780  21.7817  21.7860  21.7908  21.7961  21.9746  21.9688  21.9637
 PRANDTL NUMBER    0.6658   0.6661   0.6664   0.6667   0.6670   0.6617   0.6620   0.6623

  WITH FROZEN REACTIONS

 Cp, KJ/(KG)(K)   20.6163  20.6160  20.6157  20.6154  20.6151  20.6214  20.6207  20.6201
 CONDUCTIVITY     20.1001  20.1289  20.1578  20.1867  20.2156  19.8187  19.8472  19.8758
 PRANDTL NUMBER    0.6670   0.6670   0.6670   0.6669   0.6669   0.6677   0.6676   0.6676

 MASS FRACTIONS

 *H               0.99593  0.99598  0.99604  0.99609  0.99614  0.99484  0.99491  0.99498
 *H+              0.00010  0.00010  0.00011  0.00011  0.00011  0.00008  0.00008  0.00008
 *H2              0.00397  0.00391  0.00385  0.00380  0.00374  0.00509  0.00501  0.00493

  * THERMODYNAMIC PROPERTIES FITTED TO 20000.K

 NOTE. WEIGHT FRACTION OF FUEL IN TOTAL FUELS AND OF OXIDANT IN TOTAL OXIDANTS









               THERMODYNAMIC EQUILIBRIUM PROPERTIES AT ASSIGNED

                           TEMPERATURE AND PRESSURE

 CASE =                

             REACTANT                    WT FRACTION      ENERGY      TEMP
                                          (SEE NOTE)     KJ/KG-MOL      K  
 FUEL        H2                           1.0000000         0.000      0.000
 OXIDANT     H2                           1.0000000         0.000      0.000

 O/F=    1.00000  %FUEL= 50.000000  R,EQ.RATIO= 0.000000  PHI,EQ.RATIO=-1.000000

 THERMODYNAMIC PROPERTIES

 P, BAR           0.74000  0.74000  0.74000  0.74000  0.74000  0.74000  0.74000  0.74000
 T, K             6080.00  6090.00  6100.00  6110.00  6120.00  6130.00  6140.00  6150.00
 RHO, KG/CU M    1.4789-3 1.4764-3 1.4740-3 1.4715-3 1.4690-3 1.4666-3 1.4642-3 1.4617-3
 H, KJ/KG        334515.7 334741.4 334966.9 335192.0 335417.0 335641.7 335866.2 336090.5
 U, KJ/KG        284479.5 284620.9 284762.2 284903.2 285044.0 285184.6 285325.0 285465.3
 G, KJ/KG       -749760.8-751544.3-753328.2-755112.5-756897.2-758682.2-760467.6-762253.3
 S, KJ/(KG)(K)   178.3350 178.3720 178.4090 178.4459 178.4827 178.5194 178.5560 178.5925

 M, (1/n)           1.010    1.010    1.010    1.010    1.010    1.010    1.010    1.010
 (dLV/dLP)t      -1.00246 -1.00243 -1.00239 -1.00236 -1.00232 -1.00229 -1.00226 -1.00223
 (dLV/dLT)p        1.0234   1.0231   1.0228   1.0224   1.0221   1.0218   1.0215   1.0212
 Cp, KJ/(KG)(K)   22.5801  22.5549  22.5305  22.5069  22.4840  22.4618  22.4403  22.4195
 GAMMAs            1.6110   1.6116   1.6122   1.6127   1.6132   1.6137   1.6142   1.6147
 SON VEL,M/SEC     8978.3   8987.5   8996.6   9005.6   9014.6   9023.5   9032.4   9041.2

 TRANSPORT PROPERTIES (GASES ONLY)
   CONDUCTIVITY IN UNITS OF MILLIWATTS/(CM)(K)

 VISC,MILLIPOISE  0.64436  0.64526  0.64616  0.64705  0.64795  0.64885  0.64975  0.65065

  WITH EQUILIBRIUM REACTIONS

 Cp, KJ/(KG)(K)   22.5801  22.5549  22.5305  22.5069  22.4840  22.4618  22.4403  22.4195
 CONDUCTIVITY     21.9593  21.9557  21.9527  21.9504  21.9488  21.9478  21.9475  21.9477
 PRANDTL NUMBER    0.6626   0.6629   0.6632   0.6635   0.6638   0.6640   0.6643   0.6646

  WITH FROZEN REACTIONS

 Cp, KJ/(KG)(K)   20.6196  20.6190  20.6185  20.6180  20.6176  20.6171  20.6167  20.6163
 CONDUCTIVITY     19.9044  19.9330  19.9617  19.9904  20.0190  20.0478  20.0765  20.1053
 PRANDTL NUMBER    0.6675   0.6675   0.6674   0.6674   0.6673   0.6673   0.6672   0.6672

 MASS FRACTIONS

 *H               0.99506  0.99513  0.99520  0.99526  0.99533  0.99540  0.99546  0.99552
 *H+              0.00008  0.00008  0.00009  0.00009  0.00009  0.00009  0.00010  0.00010
 *H2              0.00486  0.00479  0.00472  0.00465  0.00458  0.00451  0.00445  0.00438

  * THERMODYNAMIC PROPERTIES FITTED TO 20000.K

 NOTE. WEIGHT FRACTION OF FUEL IN TOTAL FUELS AND OF OXIDANT IN TOTAL OXIDANTS









               THERMODYNAMIC EQUILIBRIUM PROPERTIES AT ASSIGNED

                           TEMPERATURE AND PRESSURE

 CASE =                

             REACTANT                    WT FRACTION      ENERGY      TEMP
                                          (SEE NOTE)     KJ/KG-MOL      K  
 FUEL        H2                           1.0000000         0.000      0.000
 OXIDANT     H2                           1.0000000         0.000      0.000

 O/F=    1.00000  %FUEL= 50.000000  R,EQ.RATIO= 0.000000  PHI,EQ.RATIO=-1.000000

 THERMODYNAMIC PROPERTIES

 P, BAR           0.74000  0.74000  0.74000  0.74000  0.82500  0.82500  0.82500  0.82500
 T, K             6160.00  6170.00  6180.00  6190.00  6050.00  6060.00  6070.00  6080.00
 RHO, KG/CU M    1.4593-3 1.4569-3 1.4545-3 1.4521-3 1.6577-3 1.6549-3 1.6521-3 1.6493-3
 H, KJ/KG        336314.6 336538.5 336762.2 336985.7 333697.7 333926.1 334154.1 334381.8
 U, KJ/KG        285605.3 285745.2 285884.9 286024.4 283928.9 284072.8 284216.3 284359.6
 G, KJ/KG       -764039.4-765825.9-767612.7-769399.9-739000.1-740773.3-742547.0-744321.0
 S, KJ/(KG)(K)   178.6289 178.6652 178.7014 178.7376 177.3054 177.3431 177.3807 177.4182

 M, (1/n)           1.010    1.010    1.010    1.010    1.011    1.011    1.011    1.011
 (dLV/dLP)t      -1.00220 -1.00217 -1.00214 -1.00211 -1.00285 -1.00281 -1.00277 -1.00273
 (dLV/dLT)p        1.0209   1.0206   1.0204   1.0201   1.0271   1.0267   1.0263   1.0259
 Cp, KJ/(KG)(K)   22.3994  22.3799  22.3611  22.3430  22.8470  22.8156  22.7851  22.7555
 GAMMAs            1.6151   1.6155   1.6159   1.6163   1.6051   1.6058   1.6065   1.6071
 SON VEL,M/SEC     9049.9   9058.6   9067.2   9075.8   8937.7   8947.2   8956.8   8966.2

 TRANSPORT PROPERTIES (GASES ONLY)
   CONDUCTIVITY IN UNITS OF MILLIWATTS/(CM)(K)

 VISC,MILLIPOISE  0.65155  0.65245  0.65336  0.65426  0.64209  0.64298  0.64387  0.64476

  WITH EQUILIBRIUM REACTIONS

 Cp, KJ/(KG)(K)   22.3994  22.3799  22.3611  22.3430  22.8470  22.8156  22.7851  22.7555
 CONDUCTIVITY     21.9486  21.9501  21.9522  21.9549  22.2184  22.2085  22.1994  22.1911
 PRANDTL NUMBER    0.6649   0.6652   0.6655   0.6658   0.6603   0.6606   0.6609   0.6612

  WITH FROZEN REACTIONS

 Cp, KJ/(KG)(K)   20.6160  20.6157  20.6154  20.6151  20.6214  20.6208  20.6202  20.6196
 CONDUCTIVITY     20.1341  20.1629  20.1917  20.2205  19.8258  19.8543  19.8827  19.9113
 PRANDTL NUMBER    0.6671   0.6671   0.6671   0.6670   0.6679   0.6678   0.6678   0.6677

 MASS FRACTIONS

 *H               0.99558  0.99564  0.99570  0.99576  0.99426  0.99435  0.99443  0.99451
 *H+              0.00010  0.00010  0.00010  0.00011  0.00007  0.00007  0.00008  0.00008
 *H2              0.00432  0.00425  0.00419  0.00413  0.00566  0.00558  0.00550  0.00541

  * THERMODYNAMIC PROPERTIES FITTED TO 20000.K

 NOTE. WEIGHT FRACTION OF FUEL IN TOTAL FUELS AND OF OXIDANT IN TOTAL OXIDANTS









               THERMODYNAMIC EQUILIBRIUM PROPERTIES AT ASSIGNED

                           TEMPERATURE AND PRESSURE

 CASE =                

             REACTANT                    WT FRACTION      ENERGY      TEMP
                                          (SEE NOTE)     KJ/KG-MOL      K  
 FUEL        H2                           1.0000000         0.000      0.000
 OXIDANT     H2                           1.0000000         0.000      0.000

 O/F=    1.00000  %FUEL= 50.000000  R,EQ.RATIO= 0.000000  PHI,EQ.RATIO=-1.000000

 THERMODYNAMIC PROPERTIES

 P, BAR           0.82500  0.82500  0.82500  0.82500  0.82500  0.82500  0.82500  0.82500
 T, K             6090.00  6100.00  6110.00  6120.00  6130.00  6140.00  6150.00  6160.00
 RHO, KG/CU M    1.6465-3 1.6437-3 1.6410-3 1.6382-3 1.6355-3 1.6328-3 1.6300-3 1.6273-3
 H, KJ/KG        334609.2 334836.3 335063.1 335289.7 335516.1 335742.1 335967.9 336193.5
 U, KJ/KG        284502.6 284645.4 284787.9 284930.2 285072.2 285214.0 285355.6 285497.0
 G, KJ/KG       -746095.3-747870.1-749645.2-751420.7-753196.5-754972.7-756749.3-758526.3
 S, KJ/(KG)(K)   177.4556 177.4928 177.5300 177.5671 177.6040 177.6409 177.6776 177.7143

 M, (1/n)           1.011    1.011    1.010    1.010    1.010    1.010    1.010    1.010
 (dLV/dLP)t      -1.00269 -1.00266 -1.00262 -1.00258 -1.00254 -1.00251 -1.00247 -1.00244
 (dLV/dLT)p        1.0255   1.0251   1.0248   1.0244   1.0241   1.0237   1.0234   1.0231
 Cp, KJ/(KG)(K)   22.7267  22.6987  22.6715  22.6451  22.6194  22.5945  22.5704  22.5470
 GAMMAs            1.6078   1.6084   1.6091   1.6097   1.6102   1.6108   1.6113   1.6119
 SON VEL,M/SEC     8975.6   8984.9   8994.2   9003.4   9012.6   9021.7   9030.7   9039.7

 TRANSPORT PROPERTIES (GASES ONLY)
   CONDUCTIVITY IN UNITS OF MILLIWATTS/(CM)(K)

 VISC,MILLIPOISE  0.64565  0.64655  0.64744  0.64833  0.64923  0.65012  0.65102  0.65192

  WITH EQUILIBRIUM REACTIONS

 Cp, KJ/(KG)(K)   22.7267  22.6987  22.6715  22.6451  22.6194  22.5945  22.5704  22.5470
 CONDUCTIVITY     22.1835  22.1768  22.1708  22.1655  22.1609  22.1570  22.1539  22.1514
 PRANDTL NUMBER    0.6615   0.6618   0.6621   0.6624   0.6627   0.6630   0.6633   0.6636

  WITH FROZEN REACTIONS

 Cp, KJ/(KG)(K)   20.6191  20.6185  20.6181  20.6176  20.6172  20.6167  20.6164  20.6160
 CONDUCTIVITY     19.9398  19.9684  19.9970  20.0256  20.0542  20.0829  20.1116  20.1403
 PRANDTL NUMBER    0.6676   0.6676   0.6675   0.6675   0.6675   0.6674   0.6674   0.6673

 MASS FRACTIONS

 *H               0.99459  0.99466  0.99474  0.99481  0.99489  0.99496  0.99503  0.99510
 *H+              0.00008  0.00008  0.00008  0.00009  0.00009  0.00009  0.00009  0.00009
 *H2              0.00533  0.00525  0.00518  0.00510  0.00503  0.00495  0.00488  0.00481

  * THERMODYNAMIC PROPERTIES FITTED TO 20000.K

 NOTE. WEIGHT FRACTION OF FUEL IN TOTAL FUELS AND OF OXIDANT IN TOTAL OXIDANTS









               THERMODYNAMIC EQUILIBRIUM PROPERTIES AT ASSIGNED

                           TEMPERATURE AND PRESSURE

 CASE =                

             REACTANT                    WT FRACTION      ENERGY      TEMP
                                          (SEE NOTE)     KJ/KG-MOL      K  
 FUEL        H2                           1.0000000         0.000      0.000
 OXIDANT     H2                           1.0000000         0.000      0.000

 O/F=    1.00000  %FUEL= 50.000000  R,EQ.RATIO= 0.000000  PHI,EQ.RATIO=-1.000000

 THERMODYNAMIC PROPERTIES

 P, BAR           0.82500  0.82500  0.82500  0.91000  0.91000  0.91000  0.91000  0.91000
 T, K             6170.00  6180.00  6190.00  6050.00  6060.00  6070.00  6080.00  6090.00
 RHO, KG/CU M    1.6246-3 1.6219-3 1.6193-3 1.8290-3 1.8259-3 1.8228-3 1.8197-3 1.8166-3
 H, KJ/KG        336418.9 336644.0 336868.9 333559.4 333789.6 334019.4 334248.9 334478.1
 U, KJ/KG        285638.2 285779.1 285919.9 283805.2 283950.7 284095.9 284240.8 284385.4
 G, KJ/KG       -760303.6-762081.3-763859.4-734120.4-735885.4-737650.7-739416.4-741182.5
 S, KJ/(KG)(K)   177.7508 177.7873 177.8236 176.4760 176.5140 176.5519 176.5897 176.6273

 M, (1/n)           1.010    1.010    1.010    1.011    1.011    1.011    1.011    1.011
 (dLV/dLP)t      -1.00241 -1.00237 -1.00234 -1.00314 -1.00309 -1.00305 -1.00300 -1.00296
 (dLV/dLT)p        1.0227   1.0224   1.0221   1.0297   1.0292   1.0288   1.0283   1.0279
 Cp, KJ/(KG)(K)   22.5243  22.5024  22.4811  23.0352  23.0000  22.9657  22.9324  22.9000
 GAMMAs            1.6124   1.6128   1.6133   1.6010   1.6017   1.6025   1.6033   1.6040
 SON VEL,M/SEC     9048.6   9057.4   9066.2   8924.9   8934.7   8944.5   8954.2   8963.8

 TRANSPORT PROPERTIES (GASES ONLY)
   CONDUCTIVITY IN UNITS OF MILLIWATTS/(CM)(K)

 VISC,MILLIPOISE  0.65282  0.65372  0.65462  0.64250  0.64339  0.64427  0.64516  0.64604

  WITH EQUILIBRIUM REACTIONS

 Cp, KJ/(KG)(K)   22.5243  22.5024  22.4811  23.0352  23.0000  22.9657  22.9324  22.9000
 CONDUCTIVITY     22.1495  22.1483  22.1478  22.4618  22.4478  22.4347  22.4225  22.4111
 PRANDTL NUMBER    0.6639   0.6642   0.6645   0.6589   0.6592   0.6595   0.6598   0.6601

  WITH FROZEN REACTIONS

 Cp, KJ/(KG)(K)   20.6157  20.6154  20.6151  20.6215  20.6208  20.6202  20.6197  20.6191
 CONDUCTIVITY     20.1690  20.1978  20.2266  19.8329  19.8612  19.8896  19.9181  19.9465
 PRANDTL NUMBER    0.6673   0.6672   0.6672   0.6680   0.6680   0.6679   0.6679   0.6678

 MASS FRACTIONS

 *H               0.99516  0.99523  0.99530  0.99369  0.99378  0.99387  0.99396  0.99404
 *H+              0.00010  0.00010  0.00010  0.00007  0.00007  0.00007  0.00007  0.00008
 *H2              0.00474  0.00467  0.00460  0.00624  0.00615  0.00606  0.00597  0.00588

  * THERMODYNAMIC PROPERTIES FITTED TO 20000.K

 NOTE. WEIGHT FRACTION OF FUEL IN TOTAL FUELS AND OF OXIDANT IN TOTAL OXIDANTS









               THERMODYNAMIC EQUILIBRIUM PROPERTIES AT ASSIGNED

                           TEMPERATURE AND PRESSURE

 CASE =                

             REACTANT                    WT FRACTION      ENERGY      TEMP
                                          (SEE NOTE)     KJ/KG-MOL      K  
 FUEL        H2                           1.0000000         0.000      0.000
 OXIDANT     H2                           1.0000000         0.000      0.000

 O/F=    1.00000  %FUEL= 50.000000  R,EQ.RATIO= 0.000000  PHI,EQ.RATIO=-1.000000

 THERMODYNAMIC PROPERTIES

 P, BAR           0.91000  0.91000  0.91000  0.91000  0.91000  0.91000  0.91000  0.91000
 T, K             6100.00  6110.00  6120.00  6130.00  6140.00  6150.00  6160.00  6170.00
 RHO, KG/CU M    1.8136-3 1.8105-3 1.8075-3 1.8045-3 1.8014-3 1.7984-3 1.7954-3 1.7925-3
 H, KJ/KG        334706.9 334935.4 335163.7 335391.6 335619.2 335846.6 336073.7 336300.5
 U, KJ/KG        284529.7 284673.7 284817.5 284960.9 285104.2 285247.1 285389.9 285532.4
 G, KJ/KG       -742948.9-744715.8-746483.0-748250.6-750018.5-751786.9-753555.6-755324.6
 S, KJ/(KG)(K)   176.6649 176.7023 176.7396 176.7769 176.8140 176.8510 176.8879 176.9247

 M, (1/n)           1.011    1.011    1.011    1.011    1.011    1.011    1.011    1.010
 (dLV/dLP)t      -1.00292 -1.00288 -1.00284 -1.00280 -1.00276 -1.00272 -1.00268 -1.00264
 (dLV/dLT)p        1.0275   1.0271   1.0267   1.0263   1.0259   1.0256   1.0252   1.0248
 Cp, KJ/(KG)(K)   22.8684  22.8377  22.8079  22.7788  22.7506  22.7233  22.6966  22.6708
 GAMMAs            1.6047   1.6054   1.6061   1.6067   1.6074   1.6080   1.6086   1.6092
 SON VEL,M/SEC     8973.3   8982.8   8992.2   9001.6   9010.9   9020.2   9029.3   9038.5

 TRANSPORT PROPERTIES (GASES ONLY)
   CONDUCTIVITY IN UNITS OF MILLIWATTS/(CM)(K)

 VISC,MILLIPOISE  0.64693  0.64782  0.64871  0.64960  0.65049  0.65139  0.65228  0.65318

  WITH EQUILIBRIUM REACTIONS

 Cp, KJ/(KG)(K)   22.8684  22.8377  22.8079  22.7788  22.7506  22.7233  22.6966  22.6708
 CONDUCTIVITY     22.4006  22.3909  22.3820  22.3738  22.3665  22.3599  22.3540  22.3488
 PRANDTL NUMBER    0.6604   0.6607   0.6611   0.6614   0.6617   0.6620   0.6623   0.6626

  WITH FROZEN REACTIONS

 Cp, KJ/(KG)(K)   20.6186  20.6181  20.6176  20.6172  20.6168  20.6164  20.6160  20.6157
 CONDUCTIVITY     19.9750  20.0035  20.0321  20.0606  20.0892  20.1178  20.1465  20.1751
 PRANDTL NUMBER    0.6678   0.6677   0.6677   0.6676   0.6676   0.6675   0.6675   0.6674

 MASS FRACTIONS

 *H               0.99413  0.99421  0.99430  0.99438  0.99446  0.99453  0.99461  0.99468
 *H+              0.00008  0.00008  0.00008  0.00008  0.00009  0.00009  0.00009  0.00009
 *H2              0.00579  0.00571  0.00562  0.00554  0.00546  0.00538  0.00530  0.00522

  * THERMODYNAMIC PROPERTIES FITTED TO 20000.K

 NOTE. WEIGHT FRACTION OF FUEL IN TOTAL FUELS AND OF OXIDANT IN TOTAL OXIDANTS









               THERMODYNAMIC EQUILIBRIUM PROPERTIES AT ASSIGNED

                           TEMPERATURE AND PRESSURE

 CASE =                

             REACTANT                    WT FRACTION      ENERGY      TEMP
                                          (SEE NOTE)     KJ/KG-MOL      K  
 FUEL        H2                           1.0000000         0.000      0.000
 OXIDANT     H2                           1.0000000         0.000      0.000

 O/F=    1.00000  %FUEL= 50.000000  R,EQ.RATIO= 0.000000  PHI,EQ.RATIO=-1.000000

 THERMODYNAMIC PROPERTIES

 P, BAR           0.91000  0.91000   1.0000   1.0000   1.0000   1.0000   1.0000   1.0000
 T, K             6180.00  6190.00  6050.00  6060.00  6070.00  6080.00  6090.00  6100.00
 RHO, KG/CU M    1.7895-3 1.7865-3 2.0105-3 2.0071-3 2.0037-3 2.0003-3 1.9969-3 1.9935-3
 H, KJ/KG        336527.1 336753.5 333413.9 333646.0 333877.8 334109.2 334340.2 334570.9
 U, KJ/KG        285674.6 285816.7 283675.1 283822.4 283969.3 284115.9 284262.2 284408.1
 G, KJ/KG       -757094.0-758863.8-729428.8-731185.7-732943.1-734700.8-736458.9-738217.4
 S, KJ/(KG)(K)   176.9614 176.9979 175.6765 175.7148 175.7530 175.7911 175.8291 175.8669

 M, (1/n)           1.010    1.010    1.011    1.011    1.011    1.011    1.011    1.011
 (dLV/dLP)t      -1.00261 -1.00257 -1.00344 -1.00339 -1.00334 -1.00329 -1.00324 -1.00320
 (dLV/dLT)p        1.0245   1.0242   1.0324   1.0319   1.0314   1.0309   1.0305   1.0300
 Cp, KJ/(KG)(K)   22.6457  22.6214  23.2354  23.1962  23.1580  23.1208  23.0846  23.0494
 GAMMAs            1.6097   1.6102   1.5967   1.5975   1.5984   1.5992   1.6000   1.6008
 SON VEL,M/SEC     9047.5   9056.5   8911.6   8921.6   8931.6   8941.5   8951.3   8961.1

 TRANSPORT PROPERTIES (GASES ONLY)
   CONDUCTIVITY IN UNITS OF MILLIWATTS/(CM)(K)

 VISC,MILLIPOISE  0.65407  0.65497  0.64293  0.64381  0.64469  0.64557  0.64645  0.64734

  WITH EQUILIBRIUM REACTIONS

 Cp, KJ/(KG)(K)   22.6457  22.6214  23.2354  23.1962  23.1580  23.1208  23.0846  23.0494
 CONDUCTIVITY     22.3444  22.3406  22.7190  22.7007  22.6834  22.6671  22.6517  22.6372
 PRANDTL NUMBER    0.6629   0.6632   0.6575   0.6579   0.6582   0.6585   0.6588   0.6591

  WITH FROZEN REACTIONS

 Cp, KJ/(KG)(K)   20.6154  20.6151  20.6215  20.6209  20.6203  20.6197  20.6192  20.6186
 CONDUCTIVITY     20.2038  20.2325  19.8403  19.8686  19.8969  19.9253  19.9536  19.9820
 PRANDTL NUMBER    0.6674   0.6674   0.6682   0.6682   0.6681   0.6681   0.6680   0.6680

 MASS FRACTIONS

 *H               0.99476  0.99483  0.99308  0.99318  0.99328  0.99338  0.99347  0.99357
 *H+              0.00009  0.00010  0.00007  0.00007  0.00007  0.00007  0.00007  0.00007
 *H2              0.00515  0.00507  0.00685  0.00675  0.00665  0.00655  0.00645  0.00636

  * THERMODYNAMIC PROPERTIES FITTED TO 20000.K

 NOTE. WEIGHT FRACTION OF FUEL IN TOTAL FUELS AND OF OXIDANT IN TOTAL OXIDANTS









               THERMODYNAMIC EQUILIBRIUM PROPERTIES AT ASSIGNED

                           TEMPERATURE AND PRESSURE

 CASE =                

             REACTANT                    WT FRACTION      ENERGY      TEMP
                                          (SEE NOTE)     KJ/KG-MOL      K  
 FUEL        H2                           1.0000000         0.000      0.000
 OXIDANT     H2                           1.0000000         0.000      0.000

 O/F=    1.00000  %FUEL= 50.000000  R,EQ.RATIO= 0.000000  PHI,EQ.RATIO=-1.000000

 THERMODYNAMIC PROPERTIES

 P, BAR            1.0000   1.0000   1.0000   1.0000   1.0000   1.0000   1.0000   1.0000
 T, K             6110.00  6120.00  6130.00  6140.00  6150.00  6160.00  6170.00  6180.00
 RHO, KG/CU M    1.9902-3 1.9868-3 1.9835-3 1.9801-3 1.9768-3 1.9735-3 1.9703-3 1.9670-3
 H, KJ/KG        334801.2 335031.2 335260.9 335490.2 335719.2 335947.9 336176.3 336404.5
 U, KJ/KG        284553.8 284699.1 284844.1 284988.9 285133.3 285277.5 285421.4 285565.1
 G, KJ/KG       -739976.2-741735.5-743495.1-745255.1-747015.4-748776.1-750537.2-752298.7
 S, KJ/(KG)(K)   175.9047 175.9423 175.9798 176.0171 176.0544 176.0916 176.1286 176.1656

 M, (1/n)           1.011    1.011    1.011    1.011    1.011    1.011    1.011    1.011
 (dLV/dLP)t      -1.00315 -1.00311 -1.00306 -1.00302 -1.00298 -1.00294 -1.00290 -1.00286
 (dLV/dLT)p        1.0296   1.0291   1.0287   1.0283   1.0279   1.0275   1.0271   1.0267
 Cp, KJ/(KG)(K)   23.0150  22.9816  22.9491  22.9174  22.8866  22.8567  22.8276  22.7993
 GAMMAs            1.6016   1.6023   1.6031   1.6038   1.6044   1.6051   1.6058   1.6064
 SON VEL,M/SEC     8970.8   8980.5   8990.0   8999.6   9009.0   9018.4   9027.7   9037.0

 TRANSPORT PROPERTIES (GASES ONLY)
   CONDUCTIVITY IN UNITS OF MILLIWATTS/(CM)(K)

 VISC,MILLIPOISE  0.64822  0.64911  0.64999  0.65088  0.65177  0.65266  0.65355  0.65444

  WITH EQUILIBRIUM REACTIONS

 Cp, KJ/(KG)(K)   23.0150  22.9816  22.9491  22.9174  22.8866  22.8567  22.8276  22.7993
 CONDUCTIVITY     22.6236  22.6109  22.5990  22.5880  22.5777  22.5683  22.5597  22.5518
 PRANDTL NUMBER    0.6594   0.6597   0.6601   0.6604   0.6607   0.6610   0.6613   0.6616

  WITH FROZEN REACTIONS

 Cp, KJ/(KG)(K)   20.6182  20.6177  20.6172  20.6168  20.6164  20.6161  20.6157  20.6154
 CONDUCTIVITY     20.0104  20.0389  20.0674  20.0959  20.1244  20.1530  20.1816  20.2102
 PRANDTL NUMBER    0.6679   0.6679   0.6678   0.6678   0.6677   0.6677   0.6676   0.6676

 MASS FRACTIONS

 *H               0.99366  0.99375  0.99384  0.99392  0.99401  0.99409  0.99418  0.99426
 *H+              0.00008  0.00008  0.00008  0.00008  0.00008  0.00009  0.00009  0.00009
 *H2              0.00626  0.00617  0.00608  0.00599  0.00591  0.00582  0.00574  0.00565

  * THERMODYNAMIC PROPERTIES FITTED TO 20000.K

 NOTE. WEIGHT FRACTION OF FUEL IN TOTAL FUELS AND OF OXIDANT IN TOTAL OXIDANTS









               THERMODYNAMIC EQUILIBRIUM PROPERTIES AT ASSIGNED

                           TEMPERATURE AND PRESSURE

 CASE =                

             REACTANT                    WT FRACTION      ENERGY      TEMP
                                          (SEE NOTE)     KJ/KG-MOL      K  
 FUEL        H2                           1.0000000         0.000      0.000
 OXIDANT     H2                           1.0000000         0.000      0.000

 O/F=    1.00000  %FUEL= 50.000000  R,EQ.RATIO= 0.000000  PHI,EQ.RATIO=-1.000000

 THERMODYNAMIC PROPERTIES

 P, BAR            1.0000   1.1000   1.1000   1.1000   1.1000   1.1000   1.1000   1.1000
 T, K             6190.00  6050.00  6060.00  6070.00  6080.00  6090.00  6100.00  6110.00
 RHO, KG/CU M    1.9637-3 2.2123-3 2.2085-3 2.2048-3 2.2010-3 2.1973-3 2.1936-3 2.1899-3
 H, KJ/KG        336632.3 333253.2 333487.5 333721.5 333955.0 334188.1 334420.8 334653.1
 U, KJ/KG        285708.5 283531.4 283680.7 283829.6 283978.1 284126.3 284274.1 284421.5
 G, KJ/KG       -754060.6-724689.0-726437.8-728187.1-729936.7-731686.7-733437.1-735187.9
 S, KJ/(KG)(K)   176.2024 174.8665 174.9052 174.9437 174.9822 175.0205 175.0587 175.0967

 M, (1/n)           1.011    1.012    1.012    1.012    1.012    1.011    1.011    1.011
 (dLV/dLP)t      -1.00282 -1.00377 -1.00372 -1.00366 -1.00361 -1.00356 -1.00351 -1.00346
 (dLV/dLT)p        1.0263   1.0354   1.0349   1.0344   1.0338   1.0333   1.0328   1.0323
 Cp, KJ/(KG)(K)   22.7717  23.4585  23.4149  23.3725  23.3311  23.2907  23.2514  23.2131
 GAMMAs            1.6070   1.5920   1.5929   1.5939   1.5948   1.5957   1.5965   1.5974
 SON VEL,M/SEC     9046.2   8897.0   8907.2   8917.4   8927.6   8937.7   8947.7   8957.6

 TRANSPORT PROPERTIES (GASES ONLY)
   CONDUCTIVITY IN UNITS OF MILLIWATTS/(CM)(K)

 VISC,MILLIPOISE  0.65534  0.64340  0.64427  0.64515  0.64602  0.64690  0.64778  0.64866

  WITH EQUILIBRIUM REACTIONS

 Cp, KJ/(KG)(K)   22.7717  23.4585  23.4149  23.3725  23.3311  23.2907  23.2514  23.2131
 CONDUCTIVITY     22.5447  23.0041  22.9811  22.9592  22.9384  22.9185  22.8996  22.8817
 PRANDTL NUMBER    0.6619   0.6561   0.6564   0.6568   0.6571   0.6574   0.6577   0.6581

  WITH FROZEN REACTIONS

 Cp, KJ/(KG)(K)   20.6151  20.6216  20.6210  20.6204  20.6198  20.6192  20.6187  20.6182
 CONDUCTIVITY     20.2388  19.8486  19.8768  19.9050  19.9332  19.9615  19.9898  20.0181
 PRANDTL NUMBER    0.6675   0.6685   0.6684   0.6683   0.6683   0.6682   0.6682   0.6681

 MASS FRACTIONS

 *H               0.99434  0.99240  0.99252  0.99263  0.99273  0.99284  0.99294  0.99304
 *H+              0.00009  0.00006  0.00006  0.00007  0.00007  0.00007  0.00007  0.00007
 *H2              0.00557  0.00753  0.00742  0.00731  0.00720  0.00709  0.00699  0.00688

  * THERMODYNAMIC PROPERTIES FITTED TO 20000.K

 NOTE. WEIGHT FRACTION OF FUEL IN TOTAL FUELS AND OF OXIDANT IN TOTAL OXIDANTS









               THERMODYNAMIC EQUILIBRIUM PROPERTIES AT ASSIGNED

                           TEMPERATURE AND PRESSURE

 CASE =                

             REACTANT                    WT FRACTION      ENERGY      TEMP
                                          (SEE NOTE)     KJ/KG-MOL      K  
 FUEL        H2                           1.0000000         0.000      0.000
 OXIDANT     H2                           1.0000000         0.000      0.000

 O/F=    1.00000  %FUEL= 50.000000  R,EQ.RATIO= 0.000000  PHI,EQ.RATIO=-1.000000

 THERMODYNAMIC PROPERTIES

 P, BAR            1.1000   1.1000   1.1000   1.1000   1.1000   1.1000   1.1000   1.1000
 T, K             6120.00  6130.00  6140.00  6150.00  6160.00  6170.00  6180.00  6190.00
 RHO, KG/CU M    2.1862-3 2.1825-3 2.1788-3 2.1752-3 2.1715-3 2.1679-3 2.1643-3 2.1607-3
 H, KJ/KG        334885.1 335116.7 335347.9 335578.7 335809.3 336039.5 336269.3 336498.9
 U, KJ/KG        284568.6 284715.4 284861.8 285007.9 285153.7 285299.2 285444.4 285589.4
 G, KJ/KG       -736939.0-738690.6-740442.5-742194.8-743947.4-745700.5-747453.9-749207.7
 S, KJ/(KG)(K)   175.1347 175.1725 175.2102 175.2477 175.2852 175.3225 175.3597 175.3969

 M, (1/n)           1.011    1.011    1.011    1.011    1.011    1.011    1.011    1.011
 (dLV/dLP)t      -1.00341 -1.00336 -1.00331 -1.00327 -1.00322 -1.00317 -1.00313 -1.00309
 (dLV/dLT)p        1.0318   1.0314   1.0309   1.0304   1.0300   1.0296   1.0291   1.0287
 Cp, KJ/(KG)(K)   23.1758  23.1394  23.1040  23.0695  23.0359  23.0032  22.9713  22.9404
 GAMMAs            1.5982   1.5990   1.5998   1.6005   1.6013   1.6020   1.6027   1.6034
 SON VEL,M/SEC     8967.5   8977.3   8987.0   8996.7   9006.3   9015.9   9025.3   9034.8

 TRANSPORT PROPERTIES (GASES ONLY)
   CONDUCTIVITY IN UNITS OF MILLIWATTS/(CM)(K)

 VISC,MILLIPOISE  0.64954  0.65042  0.65131  0.65219  0.65308  0.65396  0.65485  0.65574

  WITH EQUILIBRIUM REACTIONS

 Cp, KJ/(KG)(K)   23.1758  23.1394  23.1040  23.0695  23.0359  23.0032  22.9713  22.9404
 CONDUCTIVITY     22.8648  22.8488  22.8337  22.8194  22.8061  22.7936  22.7820  22.7712
 PRANDTL NUMBER    0.6584   0.6587   0.6590   0.6593   0.6597   0.6600   0.6603   0.6606

  WITH FROZEN REACTIONS

 Cp, KJ/(KG)(K)   20.6178  20.6173  20.6169  20.6165  20.6162  20.6158  20.6155  20.6152
 CONDUCTIVITY     20.0465  20.0748  20.1033  20.1317  20.1602  20.1887  20.2172  20.2458
 PRANDTL NUMBER    0.6681   0.6680   0.6679   0.6679   0.6678   0.6678   0.6678   0.6677

 MASS FRACTIONS

 *H               0.99314  0.99324  0.99333  0.99343  0.99352  0.99361  0.99370  0.99379
 *H+              0.00007  0.00008  0.00008  0.00008  0.00008  0.00008  0.00009  0.00009
 *H2              0.00678  0.00668  0.00659  0.00649  0.00640  0.00630  0.00621  0.00612

  * THERMODYNAMIC PROPERTIES FITTED TO 20000.K

 NOTE. WEIGHT FRACTION OF FUEL IN TOTAL FUELS AND OF OXIDANT IN TOTAL OXIDANTS









               THERMODYNAMIC EQUILIBRIUM PROPERTIES AT ASSIGNED

                           TEMPERATURE AND PRESSURE

 CASE =                

             REACTANT                    WT FRACTION      ENERGY      TEMP
                                          (SEE NOTE)     KJ/KG-MOL      K  
 FUEL        H2                           1.0000000         0.000      0.000
 OXIDANT     H2                           1.0000000         0.000      0.000

 O/F=    1.00000  %FUEL= 50.000000  R,EQ.RATIO= 0.000000  PHI,EQ.RATIO=-1.000000

 THERMODYNAMIC PROPERTIES

 P, BAR            1.2000   1.2000   1.2000   1.2000   1.2000   1.2000   1.2000   1.2000
 T, K             6050.00  6060.00  6070.00  6080.00  6090.00  6100.00  6110.00  6120.00
 RHO, KG/CU M    2.4143-3 2.4101-3 2.4060-3 2.4019-3 2.3978-3 2.3937-3 2.3897-3 2.3856-3
 H, KJ/KG        333093.4 333329.9 333566.1 333801.7 334036.9 334271.7 334506.0 334739.9
 U, KJ/KG        283388.6 283539.9 283690.8 283841.2 283991.2 284140.9 284290.1 284439.0
 G, KJ/KG       -720363.3-722104.8-723846.6-725588.8-727331.5-729074.5-730817.8-732561.6
 S, KJ/(KG)(K)   174.1251 174.1641 174.2031 174.2419 174.2805 174.3190 174.3574 174.3957

 M, (1/n)           1.012    1.012    1.012    1.012    1.012    1.012    1.012    1.012
 (dLV/dLP)t      -1.00410 -1.00404 -1.00398 -1.00393 -1.00387 -1.00381 -1.00376 -1.00371
 (dLV/dLT)p        1.0385   1.0379   1.0373   1.0367   1.0362   1.0356   1.0351   1.0345
 Cp, KJ/(KG)(K)   23.6820  23.6341  23.5875  23.5419  23.4975  23.4542  23.4119  23.3707
 GAMMAs            1.5874   1.5884   1.5894   1.5904   1.5914   1.5923   1.5932   1.5941
 SON VEL,M/SEC     8882.6   8893.1   8903.5   8913.9   8924.2   8934.4   8944.5   8954.6

 TRANSPORT PROPERTIES (GASES ONLY)
   CONDUCTIVITY IN UNITS OF MILLIWATTS/(CM)(K)

 VISC,MILLIPOISE  0.64387  0.64474  0.64561  0.64648  0.64735  0.64822  0.64910  0.64997

  WITH EQUILIBRIUM REACTIONS

 Cp, KJ/(KG)(K)   23.6820  23.6341  23.5875  23.5419  23.4975  23.4542  23.4119  23.3707
 CONDUCTIVITY     23.2885  23.2608  23.2343  23.2089  23.1847  23.1614  23.1393  23.1182
 PRANDTL NUMBER    0.6547   0.6551   0.6554   0.6558   0.6561   0.6564   0.6567   0.6571

  WITH FROZEN REACTIONS

 Cp, KJ/(KG)(K)   20.6217  20.6211  20.6205  20.6199  20.6193  20.6188  20.6183  20.6178
 CONDUCTIVITY     19.8568  19.8849  19.9130  19.9411  19.9693  19.9975  20.0257  20.0540
 PRANDTL NUMBER    0.6687   0.6686   0.6685   0.6685   0.6684   0.6684   0.6683   0.6682

 MASS FRACTIONS

 *H               0.99173  0.99185  0.99197  0.99209  0.99220  0.99232  0.99243  0.99253
 *H+              0.00006  0.00006  0.00006  0.00006  0.00007  0.00007  0.00007  0.00007
 *H2              0.00821  0.00809  0.00796  0.00785  0.00773  0.00762  0.00750  0.00739

  * THERMODYNAMIC PROPERTIES FITTED TO 20000.K

 NOTE. WEIGHT FRACTION OF FUEL IN TOTAL FUELS AND OF OXIDANT IN TOTAL OXIDANTS









               THERMODYNAMIC EQUILIBRIUM PROPERTIES AT ASSIGNED

                           TEMPERATURE AND PRESSURE

 CASE =                

             REACTANT                    WT FRACTION      ENERGY      TEMP
                                          (SEE NOTE)     KJ/KG-MOL      K  
 FUEL        H2                           1.0000000         0.000      0.000
 OXIDANT     H2                           1.0000000         0.000      0.000

 O/F=    1.00000  %FUEL= 50.000000  R,EQ.RATIO= 0.000000  PHI,EQ.RATIO=-1.000000

 THERMODYNAMIC PROPERTIES

 P, BAR            1.2000   1.2000   1.2000   1.2000   1.2000   1.2000   1.2000   1.3200
 T, K             6130.00  6140.00  6150.00  6160.00  6170.00  6180.00  6190.00  6050.00
 RHO, KG/CU M    2.3816-3 2.3776-3 2.3736-3 2.3696-3 2.3657-3 2.3617-3 2.3578-3 2.6568-3
 H, KJ/KG        334973.4 335206.5 335439.2 335671.6 335903.6 336135.2 336366.4 332902.6
 U, KJ/KG        284587.5 284735.6 284883.4 285030.8 285177.9 285324.7 285471.2 283218.2
 G, KJ/KG       -734305.7-736050.3-737795.2-739540.5-741286.1-743032.2-744778.6-715626.9
 S, KJ/(KG)(K)   174.4338 174.4718 174.5097 174.5474 174.5850 174.6225 174.6599 173.3107

 M, (1/n)           1.012    1.011    1.011    1.011    1.011    1.011    1.011    1.012
 (dLV/dLP)t      -1.00365 -1.00360 -1.00355 -1.00350 -1.00345 -1.00341 -1.00336 -1.00450
 (dLV/dLT)p        1.0340   1.0335   1.0330   1.0325   1.0320   1.0316   1.0311   1.0421
 Cp, KJ/(KG)(K)   23.3306  23.2914  23.2532  23.2161  23.1798  23.1445  23.1101  23.9503
 GAMMAs            1.5950   1.5958   1.5967   1.5975   1.5983   1.5990   1.5998   1.5820
 SON VEL,M/SEC     8964.6   8974.6   8984.5   8994.3   9004.1   9013.7   9023.4   8865.7

 TRANSPORT PROPERTIES (GASES ONLY)
   CONDUCTIVITY IN UNITS OF MILLIWATTS/(CM)(K)

 VISC,MILLIPOISE  0.65085  0.65173  0.65261  0.65349  0.65437  0.65525  0.65614  0.64443

  WITH EQUILIBRIUM REACTIONS

 Cp, KJ/(KG)(K)   23.3306  23.2914  23.2532  23.2161  23.1798  23.1445  23.1101  23.9503
 CONDUCTIVITY     23.0980  23.0789  23.0607  23.0435  23.0272  23.0118  22.9973  23.6287
 PRANDTL NUMBER    0.6574   0.6577   0.6581   0.6584   0.6587   0.6590   0.6594   0.6532

  WITH FROZEN REACTIONS

 Cp, KJ/(KG)(K)   20.6174  20.6170  20.6166  20.6162  20.6159  20.6156  20.6153  20.6218
 CONDUCTIVITY     20.0823  20.1106  20.1390  20.1674  20.1958  20.2242  20.2527  19.8667
 PRANDTL NUMBER    0.6682   0.6681   0.6681   0.6680   0.6680   0.6679   0.6679   0.6689

 MASS FRACTIONS

 *H               0.99264  0.99275  0.99285  0.99295  0.99305  0.99315  0.99324  0.99092
 *H+              0.00007  0.00007  0.00008  0.00008  0.00008  0.00008  0.00008  0.00006
 *H2              0.00729  0.00718  0.00707  0.00697  0.00687  0.00677  0.00668  0.00902

  * THERMODYNAMIC PROPERTIES FITTED TO 20000.K

 NOTE. WEIGHT FRACTION OF FUEL IN TOTAL FUELS AND OF OXIDANT IN TOTAL OXIDANTS









               THERMODYNAMIC EQUILIBRIUM PROPERTIES AT ASSIGNED

                           TEMPERATURE AND PRESSURE

 CASE =                

             REACTANT                    WT FRACTION      ENERGY      TEMP
                                          (SEE NOTE)     KJ/KG-MOL      K  
 FUEL        H2                           1.0000000         0.000      0.000
 OXIDANT     H2                           1.0000000         0.000      0.000

 O/F=    1.00000  %FUEL= 50.000000  R,EQ.RATIO= 0.000000  PHI,EQ.RATIO=-1.000000

 THERMODYNAMIC PROPERTIES

 P, BAR            1.3200   1.3200   1.3200   1.3200   1.3200   1.3200   1.3200   1.3200
 T, K             6060.00  6070.00  6080.00  6090.00  6100.00  6110.00  6120.00  6130.00
 RHO, KG/CU M    2.6522-3 2.6477-3 2.6431-3 2.6386-3 2.6341-3 2.6296-3 2.6252-3 2.6207-3
 H, KJ/KG        333141.8 333380.6 333618.8 333856.5 334093.7 334330.4 334566.7 334802.5
 U, KJ/KG        283371.9 283525.1 283677.8 283830.1 283982.0 284133.4 284284.4 284435.0
 G, KJ/KG       -717360.2-719093.9-720828.0-722562.5-724297.4-726032.6-727768.3-729504.3
 S, KJ/(KG)(K)   173.3502 173.3895 173.4287 173.4678 173.5067 173.5455 173.5841 173.6227

 M, (1/n)           1.012    1.012    1.012    1.012    1.012    1.012    1.012    1.012
 (dLV/dLP)t      -1.00443 -1.00437 -1.00431 -1.00424 -1.00418 -1.00412 -1.00406 -1.00401
 (dLV/dLT)p        1.0415   1.0408   1.0402   1.0396   1.0390   1.0384   1.0378   1.0372
 Cp, KJ/(KG)(K)   23.8974  23.8457  23.7953  23.7460  23.6980  23.6511  23.6053  23.5607
 GAMMAs            1.5831   1.5842   1.5853   1.5863   1.5873   1.5883   1.5893   1.5902
 SON VEL,M/SEC     8876.4   8887.1   8897.7   8908.2   8918.7   8929.1   8939.4   8949.7

 TRANSPORT PROPERTIES (GASES ONLY)
   CONDUCTIVITY IN UNITS OF MILLIWATTS/(CM)(K)

 VISC,MILLIPOISE  0.64529  0.64615  0.64701  0.64788  0.64875  0.64961  0.65048  0.65136

  WITH EQUILIBRIUM REACTIONS

 Cp, KJ/(KG)(K)   23.8974  23.8457  23.7953  23.7460  23.6980  23.6511  23.6053  23.5607
 CONDUCTIVITY     23.5954  23.5635  23.5327  23.5032  23.4748  23.4476  23.4214  23.3964
 PRANDTL NUMBER    0.6535   0.6539   0.6542   0.6546   0.6549   0.6553   0.6556   0.6559

  WITH FROZEN REACTIONS

 Cp, KJ/(KG)(K)   20.6212  20.6206  20.6200  20.6194  20.6189  20.6184  20.6179  20.6175
 CONDUCTIVITY     19.8946  19.9226  19.9506  19.9787  20.0067  20.0349  20.0630  20.0912
 PRANDTL NUMBER    0.6689   0.6688   0.6687   0.6687   0.6686   0.6685   0.6685   0.6684

 MASS FRACTIONS

 *H               0.99106  0.99119  0.99132  0.99144  0.99157  0.99169  0.99181  0.99192
 *H+              0.00006  0.00006  0.00006  0.00006  0.00006  0.00007  0.00007  0.00007
 *H2              0.00888  0.00875  0.00862  0.00849  0.00837  0.00825  0.00812  0.00801

  * THERMODYNAMIC PROPERTIES FITTED TO 20000.K

 NOTE. WEIGHT FRACTION OF FUEL IN TOTAL FUELS AND OF OXIDANT IN TOTAL OXIDANTS









               THERMODYNAMIC EQUILIBRIUM PROPERTIES AT ASSIGNED

                           TEMPERATURE AND PRESSURE

 CASE =                

             REACTANT                    WT FRACTION      ENERGY      TEMP
                                          (SEE NOTE)     KJ/KG-MOL      K  
 FUEL        H2                           1.0000000         0.000      0.000
 OXIDANT     H2                           1.0000000         0.000      0.000

 O/F=    1.00000  %FUEL= 50.000000  R,EQ.RATIO= 0.000000  PHI,EQ.RATIO=-1.000000

 THERMODYNAMIC PROPERTIES

 P, BAR            1.3200   1.3200   1.3200   1.3200   1.3200   1.3200   1.4800   1.4800
 T, K             6140.00  6150.00  6160.00  6170.00  6180.00  6190.00  6050.00  6060.00
 RHO, KG/CU M    2.6163-3 2.6119-3 2.6075-3 2.6031-3 2.5988-3 2.5944-3 2.9804-3 2.9753-3
 H, KJ/KG        335037.9 335272.9 335507.4 335741.5 335975.3 336208.6 332649.7 332892.5
 U, KJ/KG        284585.2 284735.0 284884.4 285033.4 285182.1 285330.4 282992.4 283149.3
 G, KJ/KG       -731240.7-732977.5-734714.7-736452.3-738190.2-739928.5-709944.0-711667.5
 S, KJ/(KG)(K)   173.6610 173.6993 173.7374 173.7753 173.8132 173.8509 172.3295 172.3696

 M, (1/n)           1.012    1.012    1.012    1.012    1.012    1.012    1.013    1.013
 (dLV/dLP)t      -1.00395 -1.00389 -1.00384 -1.00379 -1.00373 -1.00368 -1.00502 -1.00495
 (dLV/dLT)p        1.0366   1.0361   1.0356   1.0350   1.0345   1.0340   1.0470   1.0462
 Cp, KJ/(KG)(K)   23.5171  23.4746  23.4332  23.3928  23.3534  23.3149  24.3079  24.2483
 GAMMAs            1.5912   1.5921   1.5930   1.5938   1.5947   1.5955   1.5750   1.5762
 SON VEL,M/SEC     8959.9   8970.0   8980.0   8990.0   9000.0   9009.8   8843.7   8854.8

 TRANSPORT PROPERTIES (GASES ONLY)
   CONDUCTIVITY IN UNITS OF MILLIWATTS/(CM)(K)

 VISC,MILLIPOISE  0.65223  0.65310  0.65398  0.65486  0.65573  0.65661  0.64516  0.64601

  WITH EQUILIBRIUM REACTIONS

 Cp, KJ/(KG)(K)   23.5171  23.4746  23.4332  23.3928  23.3534  23.3149  24.3079  24.2483
 CONDUCTIVITY     23.3725  23.3496  23.3277  23.3069  23.2870  23.2682  24.0804  24.0398
 PRANDTL NUMBER    0.6563   0.6566   0.6569   0.6573   0.6576   0.6579   0.6513   0.6516

  WITH FROZEN REACTIONS

 Cp, KJ/(KG)(K)   20.6171  20.6167  20.6163  20.6160  20.6157  20.6154  20.6220  20.6213
 CONDUCTIVITY     20.1194  20.1477  20.1759  20.2043  20.2326  20.2610  19.8798  19.9075
 PRANDTL NUMBER    0.6684   0.6683   0.6683   0.6682   0.6681   0.6681   0.6692   0.6692

 MASS FRACTIONS

 *H               0.99204  0.99215  0.99226  0.99237  0.99248  0.99258  0.98985  0.99000
 *H+              0.00007  0.00007  0.00007  0.00008  0.00008  0.00008  0.00005  0.00006
 *H2              0.00789  0.00777  0.00766  0.00755  0.00744  0.00734  0.01009  0.00994

  * THERMODYNAMIC PROPERTIES FITTED TO 20000.K

 NOTE. WEIGHT FRACTION OF FUEL IN TOTAL FUELS AND OF OXIDANT IN TOTAL OXIDANTS









               THERMODYNAMIC EQUILIBRIUM PROPERTIES AT ASSIGNED

                           TEMPERATURE AND PRESSURE

 CASE =                

             REACTANT                    WT FRACTION      ENERGY      TEMP
                                          (SEE NOTE)     KJ/KG-MOL      K  
 FUEL        H2                           1.0000000         0.000      0.000
 OXIDANT     H2                           1.0000000         0.000      0.000

 O/F=    1.00000  %FUEL= 50.000000  R,EQ.RATIO= 0.000000  PHI,EQ.RATIO=-1.000000

 THERMODYNAMIC PROPERTIES

 P, BAR            1.4800   1.4800   1.4800   1.4800   1.4800   1.4800   1.4800   1.4800
 T, K             6070.00  6080.00  6090.00  6100.00  6110.00  6120.00  6130.00  6140.00
 RHO, KG/CU M    2.9702-3 2.9650-3 2.9600-3 2.9549-3 2.9499-3 2.9448-3 2.9398-3 2.9348-3
 H, KJ/KG        333134.7 333376.3 333617.4 333857.9 334097.8 334337.3 334576.2 334814.7
 U, KJ/KG        283305.6 283461.4 283616.7 283771.5 283925.8 284079.7 284233.1 284386.0
 G, KJ/KG       -713391.4-715115.7-716840.4-718565.5-720291.0-722016.9-723743.1-725469.8
 S, KJ/(KG)(K)   172.4096 172.4493 172.4890 172.5284 172.5677 172.6069 172.6459 172.6848

 M, (1/n)           1.013    1.013    1.013    1.013    1.013    1.012    1.012    1.012
 (dLV/dLP)t      -1.00488 -1.00481 -1.00474 -1.00467 -1.00460 -1.00454 -1.00447 -1.00441
 (dLV/dLT)p        1.0455   1.0448   1.0441   1.0434   1.0427   1.0421   1.0414   1.0408
 Cp, KJ/(KG)(K)   24.1900  24.1331  24.0775  24.0233  23.9703  23.9185  23.8680  23.8187
 GAMMAs            1.5774   1.5786   1.5797   1.5809   1.5820   1.5830   1.5841   1.5851
 SON VEL,M/SEC     8865.8   8876.7   8887.5   8898.3   8909.0   8919.6   8930.1   8940.6

 TRANSPORT PROPERTIES (GASES ONLY)
   CONDUCTIVITY IN UNITS OF MILLIWATTS/(CM)(K)

 VISC,MILLIPOISE  0.64687  0.64772  0.64858  0.64944  0.65030  0.65116  0.65203  0.65289

  WITH EQUILIBRIUM REACTIONS

 Cp, KJ/(KG)(K)   24.1900  24.1331  24.0775  24.0233  23.9703  23.9185  23.8680  23.8187
 CONDUCTIVITY     24.0006  23.9628  23.9263  23.8911  23.8571  23.8244  23.7930  23.7627
 PRANDTL NUMBER    0.6520   0.6523   0.6527   0.6530   0.6534   0.6537   0.6541   0.6544

  WITH FROZEN REACTIONS

 Cp, KJ/(KG)(K)   20.6207  20.6202  20.6196  20.6191  20.6186  20.6181  20.6177  20.6172
 CONDUCTIVITY     19.9354  19.9632  19.9911  20.0190  20.0470  20.0750  20.1030  20.1311
 PRANDTL NUMBER    0.6691   0.6690   0.6690   0.6689   0.6688   0.6688   0.6687   0.6687

 MASS FRACTIONS

 *H               0.99015  0.99029  0.99043  0.99057  0.99071  0.99084  0.99097  0.99110
 *H+              0.00006  0.00006  0.00006  0.00006  0.00006  0.00006  0.00007  0.00007
 *H2              0.00980  0.00965  0.00951  0.00937  0.00923  0.00910  0.00896  0.00883

  * THERMODYNAMIC PROPERTIES FITTED TO 20000.K

 NOTE. WEIGHT FRACTION OF FUEL IN TOTAL FUELS AND OF OXIDANT IN TOTAL OXIDANTS









               THERMODYNAMIC EQUILIBRIUM PROPERTIES AT ASSIGNED

                           TEMPERATURE AND PRESSURE

 CASE =                

             REACTANT                    WT FRACTION      ENERGY      TEMP
                                          (SEE NOTE)     KJ/KG-MOL      K  
 FUEL        H2                           1.0000000         0.000      0.000
 OXIDANT     H2                           1.0000000         0.000      0.000

 O/F=    1.00000  %FUEL= 50.000000  R,EQ.RATIO= 0.000000  PHI,EQ.RATIO=-1.000000

 THERMODYNAMIC PROPERTIES

 P, BAR            1.4800   1.4800   1.4800   1.4800   1.4800   1.6500   1.6500   1.6500
 T, K             6150.00  6160.00  6170.00  6180.00  6190.00  6050.00  6060.00  6070.00
 RHO, KG/CU M    2.9299-3 2.9249-3 2.9200-3 2.9151-3 2.9102-3 3.3247-3 3.3189-3 3.3132-3
 H, KJ/KG        335052.6 335290.1 335527.1 335763.6 335999.7 332382.7 332629.3 332875.1
 U, KJ/KG        284538.5 284690.5 284842.2 284993.4 285144.2 282754.0 282914.2 283073.9
 G, KJ/KG       -727196.8-728924.2-730652.1-732380.2-734108.8-704546.2-706260.3-707974.8
 S, KJ/(KG)(K)   172.7235 172.7621 172.8005 172.8388 172.8770 171.3932 171.4339 171.4745

 M, (1/n)           1.012    1.012    1.012    1.012    1.012    1.014    1.013    1.013
 (dLV/dLP)t      -1.00435 -1.00429 -1.00423 -1.00417 -1.00411 -1.00558 -1.00550 -1.00542
 (dLV/dLT)p        1.0402   1.0396   1.0390   1.0384   1.0378   1.0521   1.0512   1.0504
 Cp, KJ/(KG)(K)   23.7705  23.7235  23.6776  23.6328  23.5891  24.6870  24.6203  24.5552
 GAMMAs            1.5861   1.5871   1.5881   1.5890   1.5899   1.5679   1.5692   1.5705
 SON VEL,M/SEC     8951.0   8961.4   8971.7   8981.9   8992.0   8821.2   8832.5   8843.8

 TRANSPORT PROPERTIES (GASES ONLY)
   CONDUCTIVITY IN UNITS OF MILLIWATTS/(CM)(K)

 VISC,MILLIPOISE  0.65376  0.65463  0.65550  0.65637  0.65724  0.64594  0.64678  0.64763

  WITH EQUILIBRIUM REACTIONS

 Cp, KJ/(KG)(K)   23.7705  23.7235  23.6776  23.6328  23.5891  24.6870  24.6203  24.5552
 CONDUCTIVITY     23.7336  23.7056  23.6787  23.6530  23.6283  24.5580  24.5097  24.4629
 PRANDTL NUMBER    0.6548   0.6551   0.6555   0.6558   0.6562   0.6493   0.6497   0.6501

  WITH FROZEN REACTIONS

 Cp, KJ/(KG)(K)   20.6168  20.6165  20.6161  20.6158  20.6155  20.6222  20.6215  20.6209
 CONDUCTIVITY     20.1592  20.1873  20.2155  20.2437  20.2719  19.8936  19.9212  19.9488
 PRANDTL NUMBER    0.6686   0.6685   0.6685   0.6684   0.6684   0.6696   0.6695   0.6694

 MASS FRACTIONS

 *H               0.99123  0.99135  0.99147  0.99159  0.99171  0.98871  0.98888  0.98904
 *H+              0.00007  0.00007  0.00007  0.00007  0.00008  0.00005  0.00005  0.00005
 *H2              0.00870  0.00858  0.00845  0.00833  0.00821  0.01123  0.01107  0.01090

  * THERMODYNAMIC PROPERTIES FITTED TO 20000.K

 NOTE. WEIGHT FRACTION OF FUEL IN TOTAL FUELS AND OF OXIDANT IN TOTAL OXIDANTS









               THERMODYNAMIC EQUILIBRIUM PROPERTIES AT ASSIGNED

                           TEMPERATURE AND PRESSURE

 CASE =                

             REACTANT                    WT FRACTION      ENERGY      TEMP
                                          (SEE NOTE)     KJ/KG-MOL      K  
 FUEL        H2                           1.0000000         0.000      0.000
 OXIDANT     H2                           1.0000000         0.000      0.000

 O/F=    1.00000  %FUEL= 50.000000  R,EQ.RATIO= 0.000000  PHI,EQ.RATIO=-1.000000

 THERMODYNAMIC PROPERTIES

 P, BAR            1.6500   1.6500   1.6500   1.6500   1.6500   1.6500   1.6500   1.6500
 T, K             6080.00  6090.00  6100.00  6110.00  6120.00  6130.00  6140.00  6150.00
 RHO, KG/CU M    3.3074-3 3.3018-3 3.2961-3 3.2904-3 3.2848-3 3.2792-3 3.2736-3 3.2680-3
 H, KJ/KG        333120.4 333365.0 333609.0 333852.3 334095.1 334337.4 334579.0 334820.2
 U, KJ/KG        283233.0 283391.5 283549.4 283706.8 283863.7 284020.0 284175.9 284331.2
 G, KJ/KG       -709689.8-711405.1-713120.9-714837.0-716553.6-718270.5-719987.9-721705.6
 S, KJ/(KG)(K)   171.5148 171.5550 171.5951 171.6349 171.6746 171.7142 171.7536 171.7928

 M, (1/n)           1.013    1.013    1.013    1.013    1.013    1.013    1.013    1.013
 (dLV/dLP)t      -1.00534 -1.00526 -1.00519 -1.00512 -1.00504 -1.00497 -1.00490 -1.00483
 (dLV/dLT)p        1.0497   1.0489   1.0481   1.0474   1.0466   1.0459   1.0452   1.0445
 Cp, KJ/(KG)(K)   24.4916  24.4294  24.3687  24.3093  24.2513  24.1946  24.1393  24.0852
 GAMMAs            1.5718   1.5730   1.5742   1.5754   1.5766   1.5777   1.5788   1.5799
 SON VEL,M/SEC     8855.0   8866.1   8877.2   8888.2   8899.1   8909.9   8920.7   8931.4

 TRANSPORT PROPERTIES (GASES ONLY)
   CONDUCTIVITY IN UNITS OF MILLIWATTS/(CM)(K)

 VISC,MILLIPOISE  0.64847  0.64932  0.65017  0.65102  0.65188  0.65273  0.65359  0.65445

  WITH EQUILIBRIUM REACTIONS

 Cp, KJ/(KG)(K)   24.4916  24.4294  24.3687  24.3093  24.2513  24.1946  24.1393  24.0852
 CONDUCTIVITY     24.4176  24.3738  24.3314  24.2904  24.2508  24.2125  24.1756  24.1399
 PRANDTL NUMBER    0.6504   0.6508   0.6512   0.6515   0.6519   0.6522   0.6526   0.6530

  WITH FROZEN REACTIONS

 Cp, KJ/(KG)(K)   20.6203  20.6198  20.6193  20.6188  20.6183  20.6178  20.6174  20.6170
 CONDUCTIVITY     19.9765  20.0042  20.0320  20.0598  20.0876  20.1155  20.1434  20.1714
 PRANDTL NUMBER    0.6694   0.6693   0.6692   0.6692   0.6691   0.6690   0.6690   0.6689

 MASS FRACTIONS

 *H               0.98920  0.98936  0.98951  0.98967  0.98981  0.98996  0.99010  0.99024
 *H+              0.00006  0.00006  0.00006  0.00006  0.00006  0.00006  0.00006  0.00007
 *H2              0.01074  0.01058  0.01043  0.01027  0.01012  0.00998  0.00983  0.00969

  * THERMODYNAMIC PROPERTIES FITTED TO 20000.K

 NOTE. WEIGHT FRACTION OF FUEL IN TOTAL FUELS AND OF OXIDANT IN TOTAL OXIDANTS









               THERMODYNAMIC EQUILIBRIUM PROPERTIES AT ASSIGNED

                           TEMPERATURE AND PRESSURE

 CASE =                

             REACTANT                    WT FRACTION      ENERGY      TEMP
                                          (SEE NOTE)     KJ/KG-MOL      K  
 FUEL        H2                           1.0000000         0.000      0.000
 OXIDANT     H2                           1.0000000         0.000      0.000

 O/F=    1.00000  %FUEL= 50.000000  R,EQ.RATIO= 0.000000  PHI,EQ.RATIO=-1.000000

 THERMODYNAMIC PROPERTIES

 P, BAR            1.6500   1.6500   1.6500   1.6500   1.8000   1.8000   1.8000   1.8000
 T, K             6160.00  6170.00  6180.00  6190.00  6050.00  6060.00  6070.00  6080.00
 RHO, KG/CU M    3.2625-3 3.2570-3 3.2515-3 3.2460-3 3.6288-3 3.6224-3 3.6161-3 3.6099-3
 H, KJ/KG        335060.8 335300.8 335540.4 335779.4 332148.4 332398.2 332647.3 332895.7
 U, KJ/KG        284486.1 284640.5 284794.4 284947.9 282544.7 282708.0 282870.6 283032.5
 G, KJ/KG       -723423.7-725142.2-726861.1-728580.4-700229.0-701935.6-703642.6-705350.0
 S, KJ/(KG)(K)   171.8319 171.8708 171.9096 171.9483 170.6409 170.6821 170.7232 170.7641

 M, (1/n)           1.013    1.013    1.013    1.012    1.014    1.014    1.014    1.014
 (dLV/dLP)t      -1.00476 -1.00470 -1.00463 -1.00457 -1.00607 -1.00598 -1.00589 -1.00581
 (dLV/dLT)p        1.0439   1.0432   1.0426   1.0419   1.0566   1.0557   1.0548   1.0539
 Cp, KJ/(KG)(K)   24.0324  23.9808  23.9304  23.8812  25.0204  24.9477  24.8766  24.8072
 GAMMAs            1.5810   1.5821   1.5831   1.5841   1.5619   1.5632   1.5646   1.5659
 SON VEL,M/SEC     8942.0   8952.6   8963.0   8973.5   8801.9   8813.5   8825.0   8836.5

 TRANSPORT PROPERTIES (GASES ONLY)
   CONDUCTIVITY IN UNITS OF MILLIWATTS/(CM)(K)

 VISC,MILLIPOISE  0.65531  0.65617  0.65703  0.65790  0.64662  0.64745  0.64829  0.64913

  WITH EQUILIBRIUM REACTIONS

 Cp, KJ/(KG)(K)   24.0324  23.9808  23.9304  23.8812  25.0204  24.9477  24.8766  24.8072
 CONDUCTIVITY     24.1055  24.0723  24.0403  24.0096  24.9773  24.9223  24.8689  24.8171
 PRANDTL NUMBER    0.6533   0.6537   0.6540   0.6544   0.6477   0.6481   0.6485   0.6489

  WITH FROZEN REACTIONS

 Cp, KJ/(KG)(K)   20.6166  20.6163  20.6160  20.6157  20.6223  20.6217  20.6211  20.6205
 CONDUCTIVITY     20.1994  20.2274  20.2555  20.2836  19.9058  19.9332  19.9607  19.9882
 PRANDTL NUMBER    0.6688   0.6688   0.6687   0.6687   0.6699   0.6698   0.6697   0.6697

 MASS FRACTIONS

 *H               0.99038  0.99052  0.99065  0.99078  0.98771  0.98789  0.98807  0.98825
 *H+              0.00007  0.00007  0.00007  0.00007  0.00005  0.00005  0.00005  0.00005
 *H2              0.00955  0.00941  0.00928  0.00914  0.01224  0.01206  0.01188  0.01170

  * THERMODYNAMIC PROPERTIES FITTED TO 20000.K

 NOTE. WEIGHT FRACTION OF FUEL IN TOTAL FUELS AND OF OXIDANT IN TOTAL OXIDANTS









               THERMODYNAMIC EQUILIBRIUM PROPERTIES AT ASSIGNED

                           TEMPERATURE AND PRESSURE

 CASE =                

             REACTANT                    WT FRACTION      ENERGY      TEMP
                                          (SEE NOTE)     KJ/KG-MOL      K  
 FUEL        H2                           1.0000000         0.000      0.000
 OXIDANT     H2                           1.0000000         0.000      0.000

 O/F=    1.00000  %FUEL= 50.000000  R,EQ.RATIO= 0.000000  PHI,EQ.RATIO=-1.000000

 THERMODYNAMIC PROPERTIES

 P, BAR            1.8000   1.8000   1.8000   1.8000   1.8000   1.8000   1.8000   1.8000
 T, K             6090.00  6100.00  6110.00  6120.00  6130.00  6140.00  6150.00  6160.00
 RHO, KG/CU M    3.6036-3 3.5974-3 3.5912-3 3.5851-3 3.5789-3 3.5728-3 3.5667-3 3.5606-3
 H, KJ/KG        333143.5 333390.5 333636.9 333882.7 334127.8 334372.3 334616.3 334859.6
 U, KJ/KG        283193.9 283354.6 283514.7 283674.2 283833.2 283991.6 284149.5 284306.8
 G, KJ/KG       -707057.9-708766.1-710474.8-712183.9-713893.3-715603.2-717313.4-719024.1
 S, KJ/(KG)(K)   170.8048 170.8454 170.8857 170.9259 170.9659 171.0058 171.0455 171.0850

 M, (1/n)           1.014    1.014    1.014    1.013    1.013    1.013    1.013    1.013
 (dLV/dLP)t      -1.00573 -1.00564 -1.00556 -1.00548 -1.00541 -1.00533 -1.00525 -1.00518
 (dLV/dLT)p        1.0531   1.0523   1.0514   1.0507   1.0499   1.0491   1.0484   1.0476
 Cp, KJ/(KG)(K)   24.7392  24.6729  24.6080  24.5445  24.4825  24.4219  24.3627  24.3048
 GAMMAs            1.5673   1.5685   1.5698   1.5711   1.5723   1.5735   1.5746   1.5758
 SON VEL,M/SEC     8847.8   8859.1   8870.3   8881.5   8892.5   8903.5   8914.4   8925.3

 TRANSPORT PROPERTIES (GASES ONLY)
   CONDUCTIVITY IN UNITS OF MILLIWATTS/(CM)(K)

 VISC,MILLIPOISE  0.64997  0.65081  0.65165  0.65250  0.65335  0.65420  0.65505  0.65590

  WITH EQUILIBRIUM REACTIONS

 Cp, KJ/(KG)(K)   24.7392  24.6729  24.6080  24.5445  24.4825  24.4219  24.3627  24.3048
 CONDUCTIVITY     24.7669  24.7182  24.6711  24.6254  24.5812  24.5384  24.4970  24.4570
 PRANDTL NUMBER    0.6492   0.6496   0.6500   0.6504   0.6507   0.6511   0.6515   0.6518

  WITH FROZEN REACTIONS

 Cp, KJ/(KG)(K)   20.6199  20.6194  20.6189  20.6184  20.6180  20.6176  20.6172  20.6168
 CONDUCTIVITY     20.0158  20.0434  20.0711  20.0988  20.1265  20.1543  20.1821  20.2100
 PRANDTL NUMBER    0.6696   0.6695   0.6694   0.6694   0.6693   0.6692   0.6692   0.6691

 MASS FRACTIONS

 *H               0.98842  0.98858  0.98875  0.98891  0.98907  0.98923  0.98938  0.98953
 *H+              0.00005  0.00006  0.00006  0.00006  0.00006  0.00006  0.00006  0.00006
 *H2              0.01153  0.01136  0.01119  0.01103  0.01087  0.01071  0.01056  0.01040

  * THERMODYNAMIC PROPERTIES FITTED TO 20000.K

 NOTE. WEIGHT FRACTION OF FUEL IN TOTAL FUELS AND OF OXIDANT IN TOTAL OXIDANTS









               THERMODYNAMIC EQUILIBRIUM PROPERTIES AT ASSIGNED

                           TEMPERATURE AND PRESSURE

 CASE =                

             REACTANT                    WT FRACTION      ENERGY      TEMP
                                          (SEE NOTE)     KJ/KG-MOL      K  
 FUEL        H2                           1.0000000         0.000      0.000
 OXIDANT     H2                           1.0000000         0.000      0.000

 O/F=    1.00000  %FUEL= 50.000000  R,EQ.RATIO= 0.000000  PHI,EQ.RATIO=-1.000000

 THERMODYNAMIC PROPERTIES

 P, BAR            1.8000   1.8000   1.8000   2.0000   2.0000   2.0000   2.0000   2.0000
 T, K             6170.00  6180.00  6190.00  6050.00  6060.00  6070.00  6080.00  6090.00
 RHO, KG/CU M    3.5546-3 3.5486-3 3.5426-3 4.0347-3 4.0276-3 4.0206-3 4.0136-3 4.0066-3
 H, KJ/KG        335102.4 335344.6 335586.2 331837.5 332091.8 332345.2 332597.8 332849.7
 U, KJ/KG        284463.6 284619.9 284775.7 282267.3 282434.5 282601.0 282766.7 282931.8
 G, KJ/KG       -720735.1-722446.6-724158.4-695004.4-696701.9-698399.8-700098.1-701796.8
 S, KJ/(KG)(K)   171.1244 171.1636 171.2027 169.7259 169.7679 169.8097 169.8513 169.8927

 M, (1/n)           1.013    1.013    1.013    1.015    1.015    1.015    1.014    1.014
 (dLV/dLP)t      -1.00511 -1.00504 -1.00497 -1.00672 -1.00662 -1.00652 -1.00643 -1.00634
 (dLV/dLT)p        1.0469   1.0462   1.0455   1.0625   1.0615   1.0606   1.0596   1.0587
 Cp, KJ/(KG)(K)   24.2483  24.1930  24.1390  25.4630  25.3824  25.3035  25.2264  25.1509
 GAMMAs            1.5769   1.5780   1.5791   1.5541   1.5556   1.5571   1.5585   1.5599
 SON VEL,M/SEC     8936.1   8946.8   8957.5   8777.2   8789.0   8800.8   8812.5   8824.2

 TRANSPORT PROPERTIES (GASES ONLY)
   CONDUCTIVITY IN UNITS OF MILLIWATTS/(CM)(K)

 VISC,MILLIPOISE  0.65676  0.65761  0.65847  0.64752  0.64834  0.64917  0.64999  0.65082

  WITH EQUILIBRIUM REACTIONS

 Cp, KJ/(KG)(K)   24.2483  24.1930  24.1390  25.4630  25.3824  25.3035  25.2264  25.1509
 CONDUCTIVITY     24.4183  24.3809  24.3448  25.5334  25.4694  25.4073  25.3469  25.2883
 PRANDTL NUMBER    0.6522   0.6525   0.6529   0.6457   0.6461   0.6465   0.6469   0.6473

  WITH FROZEN REACTIONS

 Cp, KJ/(KG)(K)   20.6165  20.6161  20.6158  20.6226  20.6219  20.6213  20.6207  20.6202
 CONDUCTIVITY     20.2379  20.2658  20.2938  19.9219  19.9492  19.9764  20.0038  20.0312
 PRANDTL NUMBER    0.6690   0.6690   0.6689   0.6703   0.6702   0.6701   0.6700   0.6700

 MASS FRACTIONS

 *H               0.98968  0.98982  0.98997  0.98638  0.98658  0.98678  0.98697  0.98716
 *H+              0.00007  0.00007  0.00007  0.00005  0.00005  0.00005  0.00005  0.00005
 *H2              0.01026  0.01011  0.00996  0.01357  0.01337  0.01317  0.01298  0.01279

  * THERMODYNAMIC PROPERTIES FITTED TO 20000.K

 NOTE. WEIGHT FRACTION OF FUEL IN TOTAL FUELS AND OF OXIDANT IN TOTAL OXIDANTS









               THERMODYNAMIC EQUILIBRIUM PROPERTIES AT ASSIGNED

                           TEMPERATURE AND PRESSURE

 CASE =                

             REACTANT                    WT FRACTION      ENERGY      TEMP
                                          (SEE NOTE)     KJ/KG-MOL      K  
 FUEL        H2                           1.0000000         0.000      0.000
 OXIDANT     H2                           1.0000000         0.000      0.000

 O/F=    1.00000  %FUEL= 50.000000  R,EQ.RATIO= 0.000000  PHI,EQ.RATIO=-1.000000

 THERMODYNAMIC PROPERTIES

 P, BAR            2.0000   2.0000   2.0000   2.0000   2.0000   2.0000   2.0000   2.0000
 T, K             6100.00  6110.00  6120.00  6130.00  6140.00  6150.00  6160.00  6170.00
 RHO, KG/CU M    3.9996-3 3.9927-3 3.9858-3 3.9790-3 3.9721-3 3.9653-3 3.9585-3 3.9518-3
 H, KJ/KG        333100.9 333351.3 333601.0 333850.0 334098.3 334345.9 334592.9 334839.3
 U, KJ/KG        283096.2 283260.0 283423.0 283585.5 283747.3 283908.5 284069.2 284229.2
 G, KJ/KG       -703496.0-705195.5-706895.4-708595.8-710296.6-711997.7-713699.3-715401.3
 S, KJ/(KG)(K)   169.9339 169.9749 170.0158 170.0564 170.0969 170.1372 170.1773 170.2173

 M, (1/n)           1.014    1.014    1.014    1.014    1.014    1.014    1.014    1.014
 (dLV/dLP)t      -1.00625 -1.00616 -1.00607 -1.00598 -1.00590 -1.00582 -1.00574 -1.00565
 (dLV/dLT)p        1.0578   1.0569   1.0560   1.0551   1.0543   1.0534   1.0526   1.0518
 Cp, KJ/(KG)(K)   25.0772  25.0050  24.9345  24.8655  24.7980  24.7320  24.6675  24.6044
 GAMMAs            1.5613   1.5626   1.5640   1.5653   1.5666   1.5678   1.5691   1.5703
 SON VEL,M/SEC     8835.8   8847.3   8858.7   8870.0   8881.3   8892.5   8903.7   8914.7

 TRANSPORT PROPERTIES (GASES ONLY)
   CONDUCTIVITY IN UNITS OF MILLIWATTS/(CM)(K)

 VISC,MILLIPOISE  0.65166  0.65249  0.65333  0.65417  0.65501  0.65585  0.65669  0.65754

  WITH EQUILIBRIUM REACTIONS

 Cp, KJ/(KG)(K)   25.0772  25.0050  24.9345  24.8655  24.7980  24.7320  24.6675  24.6044
 CONDUCTIVITY     25.2314  25.1761  25.1225  25.0704  25.0200  24.9710  24.9235  24.8775
 PRANDTL NUMBER    0.6477   0.6481   0.6484   0.6488   0.6492   0.6496   0.6499   0.6503

  WITH FROZEN REACTIONS

 Cp, KJ/(KG)(K)   20.6197  20.6192  20.6187  20.6182  20.6178  20.6174  20.6170  20.6167
 CONDUCTIVITY     20.0586  20.0860  20.1136  20.1411  20.1687  20.1963  20.2240  20.2518
 PRANDTL NUMBER    0.6699   0.6698   0.6697   0.6697   0.6696   0.6695   0.6695   0.6694

 MASS FRACTIONS

 *H               0.98735  0.98753  0.98771  0.98789  0.98806  0.98823  0.98840  0.98856
 *H+              0.00005  0.00005  0.00006  0.00006  0.00006  0.00006  0.00006  0.00006
 *H2              0.01260  0.01241  0.01223  0.01206  0.01188  0.01171  0.01154  0.01138

  * THERMODYNAMIC PROPERTIES FITTED TO 20000.K

 NOTE. WEIGHT FRACTION OF FUEL IN TOTAL FUELS AND OF OXIDANT IN TOTAL OXIDANTS









               THERMODYNAMIC EQUILIBRIUM PROPERTIES AT ASSIGNED

                           TEMPERATURE AND PRESSURE

 CASE =                

             REACTANT                    WT FRACTION      ENERGY      TEMP
                                          (SEE NOTE)     KJ/KG-MOL      K  
 FUEL        H2                           1.0000000         0.000      0.000
 OXIDANT     H2                           1.0000000         0.000      0.000

 O/F=    1.00000  %FUEL= 50.000000  R,EQ.RATIO= 0.000000  PHI,EQ.RATIO=-1.000000

 THERMODYNAMIC PROPERTIES

 P, BAR            2.0000   2.0000   2.2500   2.2500   2.2500   2.2500   2.2500   2.2500
 T, K             6180.00  6190.00  6050.00  6060.00  6070.00  6080.00  6090.00  6100.00
 RHO, KG/CU M    3.9451-3 3.9384-3 4.5428-3 4.5348-3 4.5268-3 4.5189-3 4.5110-3 4.5031-3
 H, KJ/KG        335085.0 335330.2 331451.5 331711.1 331969.9 332227.8 332484.9 332741.1
 U, KJ/KG        284388.7 284547.6 281922.7 282094.8 282266.2 282436.7 282606.4 282775.4
 G, KJ/KG       -717103.7-718806.4-689168.3-690855.5-692543.1-694231.1-695919.6-697608.5
 S, KJ/(KG)(K)   170.2571 170.2967 168.6975 168.7404 168.7830 168.8255 168.8677 168.9098

 M, (1/n)           1.014    1.013    1.016    1.016    1.015    1.015    1.015    1.015
 (dLV/dLP)t      -1.00558 -1.00550 -1.00752 -1.00741 -1.00731 -1.00720 -1.00710 -1.00700
 (dLV/dLT)p        1.0510   1.0503   1.0699   1.0688   1.0677   1.0667   1.0656   1.0646
 Cp, KJ/(KG)(K)   24.5428  24.4825  26.0129  25.9225  25.8341  25.7475  25.6629  25.5800
 GAMMAs            1.5715   1.5727   1.5450   1.5465   1.5481   1.5496   1.5511   1.5526
 SON VEL,M/SEC     8925.7   8936.6   8747.6   8759.8   8771.9   8783.9   8795.9   8807.8

 TRANSPORT PROPERTIES (GASES ONLY)
   CONDUCTIVITY IN UNITS OF MILLIWATTS/(CM)(K)

 VISC,MILLIPOISE  0.65839  0.65923  0.64863  0.64944  0.65026  0.65107  0.65189  0.65271

  WITH EQUILIBRIUM REACTIONS

 Cp, KJ/(KG)(K)   24.5428  24.4825  26.0129  25.9225  25.8341  25.7475  25.6629  25.5800
 CONDUCTIVITY     24.8330  24.7898  26.2234  26.1486  26.0757  26.0048  25.9358  25.8687
 PRANDTL NUMBER    0.6507   0.6511   0.6434   0.6438   0.6442   0.6446   0.6450   0.6454

  WITH FROZEN REACTIONS

 Cp, KJ/(KG)(K)   20.6164  20.6160  20.6229  20.6222  20.6216  20.6210  20.6205  20.6200
 CONDUCTIVITY     20.2795  20.3073  19.9420  19.9690  19.9960  20.0231  20.0502  20.0774
 PRANDTL NUMBER    0.6693   0.6693   0.6708   0.6707   0.6706   0.6705   0.6704   0.6703

 MASS FRACTIONS

 *H               0.98872  0.98888  0.98473  0.98495  0.98517  0.98539  0.98560  0.98581
 *H+              0.00006  0.00006  0.00004  0.00005  0.00005  0.00005  0.00005  0.00005
 *H2              0.01121  0.01105  0.01523  0.01500  0.01478  0.01456  0.01435  0.01414

  * THERMODYNAMIC PROPERTIES FITTED TO 20000.K

 NOTE. WEIGHT FRACTION OF FUEL IN TOTAL FUELS AND OF OXIDANT IN TOTAL OXIDANTS









               THERMODYNAMIC EQUILIBRIUM PROPERTIES AT ASSIGNED

                           TEMPERATURE AND PRESSURE

 CASE =                

             REACTANT                    WT FRACTION      ENERGY      TEMP
                                          (SEE NOTE)     KJ/KG-MOL      K  
 FUEL        H2                           1.0000000         0.000      0.000
 OXIDANT     H2                           1.0000000         0.000      0.000

 O/F=    1.00000  %FUEL= 50.000000  R,EQ.RATIO= 0.000000  PHI,EQ.RATIO=-1.000000

 THERMODYNAMIC PROPERTIES

 P, BAR            2.2500   2.2500   2.2500   2.2500   2.2500   2.2500   2.2500   2.2500
 T, K             6110.00  6120.00  6130.00  6140.00  6150.00  6160.00  6170.00  6180.00
 RHO, KG/CU M    4.4952-3 4.4874-3 4.4797-3 4.4719-3 4.4642-3 4.4565-3 4.4489-3 4.4413-3
 H, KJ/KG        332996.5 333251.1 333504.9 333757.9 334010.2 334261.8 334512.6 334762.7
 U, KJ/KG        282943.6 283111.1 283277.9 283444.0 283609.4 283774.1 283938.2 284101.7
 G, KJ/KG       -699297.8-700987.5-702677.7-704368.2-706059.2-707750.6-709442.3-711134.5
 S, KJ/(KG)(K)   168.9516 168.9932 169.0347 169.0759 169.1170 169.1578 169.1985 169.2390

 M, (1/n)           1.015    1.015    1.015    1.015    1.015    1.014    1.014    1.014
 (dLV/dLP)t      -1.00690 -1.00680 -1.00670 -1.00661 -1.00651 -1.00642 -1.00633 -1.00625
 (dLV/dLT)p        1.0636   1.0626   1.0616   1.0607   1.0597   1.0588   1.0579   1.0571
 Cp, KJ/(KG)(K)   25.4990  25.4197  25.3421  25.2662  25.1919  25.1193  25.0483  24.9787
 GAMMAs            1.5541   1.5555   1.5569   1.5583   1.5597   1.5610   1.5623   1.5636
 SON VEL,M/SEC     8819.6   8831.3   8843.0   8854.6   8866.1   8877.6   8888.9   8900.3

 TRANSPORT PROPERTIES (GASES ONLY)
   CONDUCTIVITY IN UNITS OF MILLIWATTS/(CM)(K)

 VISC,MILLIPOISE  0.65353  0.65435  0.65518  0.65601  0.65684  0.65767  0.65850  0.65934

  WITH EQUILIBRIUM REACTIONS

 Cp, KJ/(KG)(K)   25.4990  25.4197  25.3421  25.2662  25.1919  25.1193  25.0483  24.9787
 CONDUCTIVITY     25.8034  25.7399  25.6782  25.6182  25.5600  25.5033  25.4483  25.3949
 PRANDTL NUMBER    0.6458   0.6462   0.6466   0.6470   0.6474   0.6478   0.6482   0.6485

  WITH FROZEN REACTIONS

 Cp, KJ/(KG)(K)   20.6195  20.6190  20.6185  20.6181  20.6177  20.6173  20.6170  20.6166
 CONDUCTIVITY     20.1047  20.1319  20.1593  20.1866  20.2141  20.2415  20.2690  20.2966
 PRANDTL NUMBER    0.6703   0.6702   0.6701   0.6700   0.6700   0.6699   0.6698   0.6697

 MASS FRACTIONS

 *H               0.98601  0.98622  0.98641  0.98661  0.98680  0.98699  0.98717  0.98735
 *H+              0.00005  0.00005  0.00005  0.00005  0.00006  0.00006  0.00006  0.00006
 *H2              0.01393  0.01373  0.01353  0.01334  0.01314  0.01296  0.01277  0.01259

  * THERMODYNAMIC PROPERTIES FITTED TO 20000.K

 NOTE. WEIGHT FRACTION OF FUEL IN TOTAL FUELS AND OF OXIDANT IN TOTAL OXIDANTS









               THERMODYNAMIC EQUILIBRIUM PROPERTIES AT ASSIGNED

                           TEMPERATURE AND PRESSURE

 CASE =                

             REACTANT                    WT FRACTION      ENERGY      TEMP
                                          (SEE NOTE)     KJ/KG-MOL      K  
 FUEL        H2                           1.0000000         0.000      0.000
 OXIDANT     H2                           1.0000000         0.000      0.000

 O/F=    1.00000  %FUEL= 50.000000  R,EQ.RATIO= 0.000000  PHI,EQ.RATIO=-1.000000

 THERMODYNAMIC PROPERTIES

 P, BAR            2.2500
 T, K             6190.00
 RHO, KG/CU M    4.4337-3
 H, KJ/KG        335012.2
 U, KJ/KG        284264.5
 G, KJ/KG       -712827.1
 S, KJ/(KG)(K)   169.2794

 M, (1/n)           1.014
 (dLV/dLP)t      -1.00616
 (dLV/dLT)p        1.0562
 Cp, KJ/(KG)(K)   24.9108
 GAMMAs            1.5649
 SON VEL,M/SEC     8911.5

 TRANSPORT PROPERTIES (GASES ONLY)
   CONDUCTIVITY IN UNITS OF MILLIWATTS/(CM)(K)

 VISC,MILLIPOISE  0.66018

  WITH EQUILIBRIUM REACTIONS

 Cp, KJ/(KG)(K)   24.9108
 CONDUCTIVITY     25.3431
 PRANDTL NUMBER    0.6489

  WITH FROZEN REACTIONS

 Cp, KJ/(KG)(K)   20.6163
 CONDUCTIVITY     20.3242
 PRANDTL NUMBER    0.6697

 MASS FRACTIONS

 *H               0.98753
 *H+              0.00006
 *H2              0.01241

  * THERMODYNAMIC PROPERTIES FITTED TO 20000.K

 NOTE. WEIGHT FRACTION OF FUEL IN TOTAL FUELS AND OF OXIDANT IN TOTAL OXIDANTS



  
