
 *******************************************************************************

         NASA-GLENN CHEMICAL EQUILIBRIUM PROGRAM CEA2, MAY 21, 2004
                   BY  BONNIE MCBRIDE AND SANFORD GORDON
      REFS: NASA RP-1311, PART I, 1994 AND NASA RP-1311, PART II, 1996

 *******************************************************************************



  prob tp ions
  p,bar= 280.0,310.0,350.0,390.0,440.0,490.0,540.0,600.0,670.0,740.0,825.0,910.0
  t,k= 5750,5760,5770,5780,5790,5800,5810,5820,5830,5840,5850,5860,5870,5880,5890
  
  
  reac
  fuel H2                wt%=100.0000
  oxid H2                wt%=100.0000
  
  output short
  
  output massf
  
  output siunits
  
  output transport
  
 end





               THERMODYNAMIC EQUILIBRIUM PROPERTIES AT ASSIGNED

                           TEMPERATURE AND PRESSURE

 CASE =                

             REACTANT                    WT FRACTION      ENERGY      TEMP
                                          (SEE NOTE)     KJ/KG-MOL      K  
 FUEL        H2                           1.0000000         0.000      0.000
 OXIDANT     H2                           1.0000000         0.000      0.000

 O/F=    1.00000  %FUEL= 50.000000  R,EQ.RATIO= 0.000000  PHI,EQ.RATIO=-1.000000

 THERMODYNAMIC PROPERTIES

 P, BAR            280.00   280.00   280.00   280.00   280.00   280.00   280.00   280.00
 T, K             5750.00  5760.00  5770.00  5780.00  5790.00  5800.00  5810.00  5820.00
 RHO, KG/CU M    8.6141-1 8.5822-1 8.5505-1 8.5189-1 8.4875-1 8.4562-1 8.4251-1 8.3941-1
 H, KJ/KG        183574.5 184405.8 185237.4 186069.8 186903.1 187737.1 188572.0 189407.5
 U, KJ/KG        151069.8 151780.3 152490.8 153201.8 153913.3 154625.3 155337.8 156050.7
 G, KJ/KG       -438531.2-439612.3-440696.4-441781.9-442868.9-443957.3-445047.1-446138.4
 S, KJ/(KG)(K)   108.1923 108.3365 108.4807 108.6249 108.7689 108.9128 109.0566 109.2003

 M, (1/n)           1.471    1.468    1.465    1.462    1.459    1.456    1.454    1.451
 (dLV/dLP)t      -1.11662 -1.11697 -1.11731 -1.11765 -1.11797 -1.11829 -1.11860 -1.11891
 (dLV/dLT)p        2.1340   2.1354   2.1367   2.1380   2.1391   2.1402   2.1413   2.1422
 Cp, KJ/(KG)(K)   83.0143  83.1092  83.1989  83.2848  83.3668  83.4449  83.5191  83.5894
 GAMMAs            1.2399   1.2404   1.2409   1.2414   1.2419   1.2424   1.2429   1.2434
 SON VEL,M/SEC     6348.4   6361.5   6374.5   6387.6   6400.7   6413.9   6427.0   6440.2

 TRANSPORT PROPERTIES (GASES ONLY)
   CONDUCTIVITY IN UNITS OF MILLIWATTS/(CM)(K)

 VISC,MILLIPOISE  0.88774  0.88868  0.88962  0.89055  0.89146  0.89236  0.89325  0.89413

  WITH EQUILIBRIUM REACTIONS

 Cp, KJ/(KG)(K)   83.0097  83.1092  83.1989  83.2848  83.3668  83.4449  83.5191  83.5894
 CONDUCTIVITY    128.3437 128.4778 128.6022 128.7197 128.8304 128.9342 129.0312 129.1213
 PRANDTL NUMBER    0.5742   0.5749   0.5755   0.5762   0.5769   0.5775   0.5782   0.5788

  WITH FROZEN REACTIONS

 Cp, KJ/(KG)(K)   20.6812  20.6839  20.6866  20.6892  20.6917  20.6942  20.6966  20.6989
 CONDUCTIVITY     25.4119  25.4358  25.4600  25.4838  25.5072  25.5303  25.5530  25.5754
 PRANDTL NUMBER    0.7225   0.7227   0.7228   0.7230   0.7232   0.7233   0.7235   0.7236

 MASS FRACTIONS

 *H               0.37058  0.37329  0.37600  0.37871  0.38143  0.38415  0.38687  0.38959
 *H2              0.62942  0.62671  0.62400  0.62129  0.61857  0.61585  0.61313  0.61040

  * THERMODYNAMIC PROPERTIES FITTED TO 20000.K

 NOTE. WEIGHT FRACTION OF FUEL IN TOTAL FUELS AND OF OXIDANT IN TOTAL OXIDANTS









               THERMODYNAMIC EQUILIBRIUM PROPERTIES AT ASSIGNED

                           TEMPERATURE AND PRESSURE

 CASE =                

             REACTANT                    WT FRACTION      ENERGY      TEMP
                                          (SEE NOTE)     KJ/KG-MOL      K  
 FUEL        H2                           1.0000000         0.000      0.000
 OXIDANT     H2                           1.0000000         0.000      0.000

 O/F=    1.00000  %FUEL= 50.000000  R,EQ.RATIO= 0.000000  PHI,EQ.RATIO=-1.000000

 THERMODYNAMIC PROPERTIES

 P, BAR            280.00   280.00   280.00   280.00   280.00   280.00   280.00   310.00
 T, K             5830.00  5840.00  5850.00  5860.00  5870.00  5880.00  5890.00  5750.00
 RHO, KG/CU M    8.3633-1 8.3326-1 8.3021-1 8.2717-1 8.2415-1 8.2115-1 8.1816-1 9.6499-1
 H, KJ/KG        190243.7 191080.6 191918.1 192756.1 193594.7 194433.8 195273.3 179880.1
 U, KJ/KG        156764.0 157477.7 158191.7 158905.9 159620.4 160335.1 161050.0 147755.4
 G, KJ/KG       -447231.1-448325.3-449420.9-450517.9-451616.3-452716.2-453817.5-435240.7
 S, KJ/(KG)(K)   109.3439 109.4873 109.6306 109.7737 109.9167 110.0595 110.2022 106.9775

 M, (1/n)           1.448    1.445    1.442    1.439    1.437    1.434    1.431    1.488
 (dLV/dLP)t      -1.11920 -1.11949 -1.11978 -1.12005 -1.12032 -1.12058 -1.12084 -1.11442
 (dLV/dLT)p        2.1431   2.1439   2.1447   2.1454   2.1460   2.1465   2.1469   2.1126
 Cp, KJ/(KG)(K)   83.6558  83.7183  83.7768  83.8314  83.8820  83.9286  83.9713  81.1250
 GAMMAs            1.2439   1.2444   1.2449   1.2455   1.2460   1.2465   1.2471   1.2391
 SON VEL,M/SEC     6453.4   6466.6   6479.8   6493.0   6506.3   6519.6   6532.8   6309.1

 TRANSPORT PROPERTIES (GASES ONLY)
   CONDUCTIVITY IN UNITS OF MILLIWATTS/(CM)(K)

 VISC,MILLIPOISE  0.89500  0.89585  0.89670  0.89753  0.89835  0.89916  0.89995  0.88983

  WITH EQUILIBRIUM REACTIONS

 Cp, KJ/(KG)(K)   83.6558  83.7183  83.7768  83.8314  83.8820  83.9286  83.9713  81.1250
 CONDUCTIVITY    129.2047 129.2811 129.3508 129.4136 129.4696 129.5189 129.5613 126.5016
 PRANDTL NUMBER    0.5795   0.5801   0.5808   0.5814   0.5820   0.5827   0.5833   0.5706

  WITH FROZEN REACTIONS

 Cp, KJ/(KG)(K)   20.7012  20.7034  20.7056  20.7077  20.7097  20.7117  20.7136  20.6827
 CONDUCTIVITY     25.5974  25.6191  25.6405  25.6615  25.6822  25.7026  25.7226  25.5100
 PRANDTL NUMBER    0.7238   0.7240   0.7241   0.7243   0.7244   0.7246   0.7247   0.7215

 MASS FRACTIONS

 *H               0.39232  0.39505  0.39779  0.40052  0.40326  0.40600  0.40874  0.35456
 *H2              0.60768  0.60494  0.60221  0.59947  0.59674  0.59400  0.59125  0.64544

  * THERMODYNAMIC PROPERTIES FITTED TO 20000.K

 NOTE. WEIGHT FRACTION OF FUEL IN TOTAL FUELS AND OF OXIDANT IN TOTAL OXIDANTS









               THERMODYNAMIC EQUILIBRIUM PROPERTIES AT ASSIGNED

                           TEMPERATURE AND PRESSURE

 CASE =                

             REACTANT                    WT FRACTION      ENERGY      TEMP
                                          (SEE NOTE)     KJ/KG-MOL      K  
 FUEL        H2                           1.0000000         0.000      0.000
 OXIDANT     H2                           1.0000000         0.000      0.000

 O/F=    1.00000  %FUEL= 50.000000  R,EQ.RATIO= 0.000000  PHI,EQ.RATIO=-1.000000

 THERMODYNAMIC PROPERTIES

 P, BAR            310.00   310.00   310.00   310.00   310.00   310.00   310.00   310.00
 T, K             5760.00  5770.00  5780.00  5790.00  5800.00  5810.00  5820.00  5830.00
 RHO, KG/CU M    9.6145-1 9.5793-1 9.5443-1 9.5094-1 9.4747-1 9.4401-1 9.4057-1 9.3715-1
 H, KJ/KG        180691.9 181504.8 182318.7 183133.6 183949.5 184766.3 185584.0 186402.5
 U, KJ/KG        148449.0 149143.4 149838.5 150534.2 151230.6 151927.6 152625.2 153323.4
 G, KJ/KG       -436311.1-437383.0-438456.3-439531.0-440607.2-441684.7-442763.6-443843.9
 S, KJ/(KG)(K)   107.1186 107.2596 107.4005 107.5414 107.6822 107.8229 107.9635 108.1040

 M, (1/n)           1.485    1.482    1.480    1.477    1.474    1.471    1.468    1.465
 (dLV/dLP)t      -1.11480 -1.11517 -1.11554 -1.11590 -1.11625 -1.11660 -1.11694 -1.11727
 (dLV/dLT)p        2.1143   2.1160   2.1176   2.1191   2.1206   2.1220   2.1233   2.1246
 Cp, KJ/(KG)(K)   81.2338  81.3390  81.4408  81.5390  81.6337  81.7248  81.8123  81.8962
 GAMMAs            1.2395   1.2400   1.2405   1.2410   1.2415   1.2420   1.2424   1.2429
 SON VEL,M/SEC     6321.9   6334.7   6347.6   6360.4   6373.3   6386.3   6399.2   6412.1

 TRANSPORT PROPERTIES (GASES ONLY)
   CONDUCTIVITY IN UNITS OF MILLIWATTS/(CM)(K)

 VISC,MILLIPOISE  0.89086  0.89188  0.89288  0.89387  0.89486  0.89582  0.89678  0.89773

  WITH EQUILIBRIUM REACTIONS

 Cp, KJ/(KG)(K)   81.2338  81.3390  81.4408  81.5390  81.6337  81.7248  81.8123  81.8962
 CONDUCTIVITY    126.6665 126.8250 126.9771 127.1226 127.2618 127.3944 127.5206 127.6402
 PRANDTL NUMBER    0.5713   0.5720   0.5727   0.5733   0.5740   0.5747   0.5753   0.5760

  WITH FROZEN REACTIONS

 Cp, KJ/(KG)(K)   20.6855  20.6882  20.6909  20.6935  20.6961  20.6986  20.7010  20.7034
 CONDUCTIVITY     25.5366  25.5628  25.5887  25.6142  25.6394  25.6642  25.6886  25.7127
 PRANDTL NUMBER    0.7216   0.7218   0.7220   0.7222   0.7223   0.7225   0.7227   0.7228

 MASS FRACTIONS

 *H               0.35718  0.35981  0.36244  0.36508  0.36772  0.37036  0.37301  0.37566
 *H2              0.64281  0.64019  0.63755  0.63492  0.63228  0.62963  0.62699  0.62433

  * THERMODYNAMIC PROPERTIES FITTED TO 20000.K

 NOTE. WEIGHT FRACTION OF FUEL IN TOTAL FUELS AND OF OXIDANT IN TOTAL OXIDANTS









               THERMODYNAMIC EQUILIBRIUM PROPERTIES AT ASSIGNED

                           TEMPERATURE AND PRESSURE

 CASE =                

             REACTANT                    WT FRACTION      ENERGY      TEMP
                                          (SEE NOTE)     KJ/KG-MOL      K  
 FUEL        H2                           1.0000000         0.000      0.000
 OXIDANT     H2                           1.0000000         0.000      0.000

 O/F=    1.00000  %FUEL= 50.000000  R,EQ.RATIO= 0.000000  PHI,EQ.RATIO=-1.000000

 THERMODYNAMIC PROPERTIES

 P, BAR            310.00   310.00   310.00   310.00   310.00   310.00   350.00   350.00
 T, K             5840.00  5850.00  5860.00  5870.00  5880.00  5890.00  5750.00  5760.00
 RHO, KG/CU M    9.3374-1 9.3035-1 9.2697-1 9.2362-1 9.2027-1 9.1695-1 1.1046 0 1.1006 0
 H, KJ/KG        187221.9 188042.0 188862.9 189684.5 190506.8 191329.7 175625.1 176413.9
 U, KJ/KG        154022.0 154721.2 155420.8 156120.8 156821.2 157522.0 143938.0 144611.7
 G, KJ/KG       -444925.7-446008.8-447093.4-448179.3-449266.7-450355.4-431368.7-432425.0
 S, KJ/(KG)(K)   108.2444 108.3848 108.5250 108.6651 108.8050 108.9449 105.5641 105.7012

 M, (1/n)           1.463    1.460    1.457    1.454    1.451    1.449    1.509    1.506
 (dLV/dLP)t      -1.11760 -1.11792 -1.11823 -1.11854 -1.11884 -1.11913 -1.11157 -1.11198
 (dLV/dLT)p        2.1258   2.1269   2.1280   2.1290   2.1299   2.1307   2.0848   2.0869
 Cp, KJ/(KG)(K)   81.9765  82.0531  82.1261  82.1954  82.2610  82.3230  78.8162  78.9399
 GAMMAs            1.2434   1.2439   1.2445   1.2450   1.2455   1.2460   1.2381   1.2386
 SON VEL,M/SEC     6425.1   6438.1   6451.1   6464.2   6477.2   6490.3   6263.6   6276.2

 TRANSPORT PROPERTIES (GASES ONLY)
   CONDUCTIVITY IN UNITS OF MILLIWATTS/(CM)(K)

 VISC,MILLIPOISE  0.89866  0.89959  0.90050  0.90140  0.90229  0.90317  0.89176  0.89288

  WITH EQUILIBRIUM REACTIONS

 Cp, KJ/(KG)(K)   81.9765  82.0531  82.1261  82.1954  82.2610  82.3230  78.8162  78.9399
 CONDUCTIVITY    127.7534 127.8601 127.9603 128.0540 128.1412 128.2219 124.0855 124.2862
 PRANDTL NUMBER    0.5767   0.5773   0.5779   0.5786   0.5792   0.5799   0.5664   0.5671

  WITH FROZEN REACTIONS

 Cp, KJ/(KG)(K)   20.7057  20.7079  20.7101  20.7122  20.7143  20.7163  20.6844  20.6873
 CONDUCTIVITY     25.7365  25.7599  25.7830  25.8057  25.8281  25.8502  25.6129  25.6419
 PRANDTL NUMBER    0.7230   0.7232   0.7233   0.7235   0.7236   0.7238   0.7202   0.7204

 MASS FRACTIONS

 *H               0.37832  0.38098  0.38364  0.38630  0.38897  0.39164  0.33611  0.33863
 *H2              0.62168  0.61902  0.61636  0.61369  0.61103  0.60836  0.66389  0.66137

  * THERMODYNAMIC PROPERTIES FITTED TO 20000.K

 NOTE. WEIGHT FRACTION OF FUEL IN TOTAL FUELS AND OF OXIDANT IN TOTAL OXIDANTS









               THERMODYNAMIC EQUILIBRIUM PROPERTIES AT ASSIGNED

                           TEMPERATURE AND PRESSURE

 CASE =                

             REACTANT                    WT FRACTION      ENERGY      TEMP
                                          (SEE NOTE)     KJ/KG-MOL      K  
 FUEL        H2                           1.0000000         0.000      0.000
 OXIDANT     H2                           1.0000000         0.000      0.000

 O/F=    1.00000  %FUEL= 50.000000  R,EQ.RATIO= 0.000000  PHI,EQ.RATIO=-1.000000

 THERMODYNAMIC PROPERTIES

 P, BAR            350.00   350.00   350.00   350.00   350.00   350.00   350.00   350.00
 T, K             5770.00  5780.00  5790.00  5800.00  5810.00  5820.00  5830.00  5840.00
 RHO, KG/CU M    1.0966 0 1.0926 0 1.0887 0 1.0847 0 1.0808 0 1.0769 0 1.0731 0 1.0692 0
 H, KJ/KG        177203.9 177995.1 178787.5 179580.9 180375.5 181171.2 181967.8 182765.5
 U, KJ/KG        145286.4 145961.8 146638.2 147315.3 147993.2 148671.8 149351.1 150031.2
 G, KJ/KG       -433482.7-434541.8-435602.2-436664.0-437727.2-438791.8-439857.7-440924.9
 S, KJ/(KG)(K)   105.8382 105.9752 106.1122 106.2491 106.3860 106.5228 106.6596 106.7963

 M, (1/n)           1.503    1.500    1.497    1.495    1.492    1.489    1.486    1.483
 (dLV/dLP)t      -1.11239 -1.11279 -1.11318 -1.11357 -1.11395 -1.11433 -1.11470 -1.11506
 (dLV/dLT)p        2.0890   2.0909   2.0929   2.0947   2.0965   2.0982   2.0999   2.1015
 Cp, KJ/(KG)(K)   79.0606  79.1780  79.2923  79.4035  79.5114  79.6161  79.7175  79.8157
 GAMMAs            1.2391   1.2395   1.2400   1.2405   1.2409   1.2414   1.2419   1.2424
 SON VEL,M/SEC     6288.7   6301.3   6313.9   6326.5   6339.1   6351.7   6364.4   6377.1

 TRANSPORT PROPERTIES (GASES ONLY)
   CONDUCTIVITY IN UNITS OF MILLIWATTS/(CM)(K)

 VISC,MILLIPOISE  0.89398  0.89507  0.89616  0.89723  0.89829  0.89933  0.90037  0.90140

  WITH EQUILIBRIUM REACTIONS

 Cp, KJ/(KG)(K)   79.0606  79.1780  79.2923  79.4035  79.5114  79.6161  79.7175  79.8157
 CONDUCTIVITY    124.4810 124.6698 124.8526 125.0294 125.2002 125.3649 125.5237 125.6763
 PRANDTL NUMBER    0.5678   0.5685   0.5691   0.5698   0.5705   0.5711   0.5718   0.5725

  WITH FROZEN REACTIONS

 Cp, KJ/(KG)(K)   20.6902  20.6929  20.6956  20.6983  20.7009  20.7034  20.7058  20.7082
 CONDUCTIVITY     25.6706  25.6990  25.7270  25.7546  25.7819  25.8088  25.8353  25.8615
 PRANDTL NUMBER    0.7205   0.7207   0.7209   0.7211   0.7213   0.7214   0.7216   0.7218

 MASS FRACTIONS

 *H               0.34116  0.34369  0.34623  0.34878  0.35132  0.35388  0.35643  0.35899
 *H2              0.65884  0.65630  0.65377  0.65122  0.64867  0.64612  0.64357  0.64100

  * THERMODYNAMIC PROPERTIES FITTED TO 20000.K

 NOTE. WEIGHT FRACTION OF FUEL IN TOTAL FUELS AND OF OXIDANT IN TOTAL OXIDANTS









               THERMODYNAMIC EQUILIBRIUM PROPERTIES AT ASSIGNED

                           TEMPERATURE AND PRESSURE

 CASE =                

             REACTANT                    WT FRACTION      ENERGY      TEMP
                                          (SEE NOTE)     KJ/KG-MOL      K  
 FUEL        H2                           1.0000000         0.000      0.000
 OXIDANT     H2                           1.0000000         0.000      0.000

 O/F=    1.00000  %FUEL= 50.000000  R,EQ.RATIO= 0.000000  PHI,EQ.RATIO=-1.000000

 THERMODYNAMIC PROPERTIES

 P, BAR            350.00   350.00   350.00   350.00   350.00   390.00   390.00   390.00
 T, K             5850.00  5860.00  5870.00  5880.00  5890.00  5750.00  5760.00  5770.00
 RHO, KG/CU M    1.0654 0 1.0616 0 1.0578 0 1.0540 0 1.0502 0 1.2456 0 1.2411 0 1.2367 0
 H, KJ/KG        183564.1 184363.7 185164.2 185965.5 186767.7 171972.0 172740.0 173509.2
 U, KJ/KG        150711.9 151393.2 152075.1 152757.5 153440.6 140660.6 141316.3 141973.0
 G, KJ/KG       -441993.6-443063.6-444135.0-445207.7-446281.8-427960.2-429004.2-430049.6
 S, KJ/(KG)(K)   106.9329 107.0695 107.2060 107.3424 107.4787 104.3360 104.4695 104.6029

 M, (1/n)           1.481    1.478    1.475    1.472    1.469    1.527    1.524    1.521
 (dLV/dLP)t      -1.11542 -1.11577 -1.11612 -1.11646 -1.11679 -1.10885 -1.10928 -1.10971
 (dLV/dLT)p        2.1030   2.1045   2.1059   2.1073   2.1085   2.0584   2.0607   2.0631
 Cp, KJ/(KG)(K)   79.9106  80.0023  80.0906  80.1756  80.2572  76.7269  76.8613  76.9929
 GAMMAs            1.2428   1.2433   1.2438   1.2443   1.2448   1.2374   1.2378   1.2383
 SON VEL,M/SEC     6389.8   6402.6   6415.3   6428.1   6440.9   6224.5   6236.8   6249.1

 TRANSPORT PROPERTIES (GASES ONLY)
   CONDUCTIVITY IN UNITS OF MILLIWATTS/(CM)(K)

 VISC,MILLIPOISE  0.90241  0.90342  0.90441  0.90539  0.90636  0.89297  0.89416  0.89534

  WITH EQUILIBRIUM REACTIONS

 Cp, KJ/(KG)(K)   79.9106  80.0023  80.0906  80.1756  80.2572  76.7269  76.8613  76.9929
 CONDUCTIVITY    125.8229 125.9635 126.0979 126.2263 126.3486 121.7615 121.9901 122.2132
 PRANDTL NUMBER    0.5731   0.5738   0.5744   0.5751   0.5757   0.5627   0.5634   0.5641

  WITH FROZEN REACTIONS

 Cp, KJ/(KG)(K)   20.7106  20.7128  20.7151  20.7172  20.7193  20.6859  20.6889  20.6918
 CONDUCTIVITY     25.8874  25.9129  25.9381  25.9629  25.9874  25.6912  25.7224  25.7533
 PRANDTL NUMBER    0.7220   0.7221   0.7223   0.7225   0.7226   0.7190   0.7192   0.7194

 MASS FRACTIONS

 *H               0.36156  0.36413  0.36670  0.36928  0.37186  0.32027  0.32270  0.32514
 *H2              0.63844  0.63587  0.63330  0.63072  0.62814  0.67973  0.67730  0.67486

  * THERMODYNAMIC PROPERTIES FITTED TO 20000.K

 NOTE. WEIGHT FRACTION OF FUEL IN TOTAL FUELS AND OF OXIDANT IN TOTAL OXIDANTS









               THERMODYNAMIC EQUILIBRIUM PROPERTIES AT ASSIGNED

                           TEMPERATURE AND PRESSURE

 CASE =                

             REACTANT                    WT FRACTION      ENERGY      TEMP
                                          (SEE NOTE)     KJ/KG-MOL      K  
 FUEL        H2                           1.0000000         0.000      0.000
 OXIDANT     H2                           1.0000000         0.000      0.000

 O/F=    1.00000  %FUEL= 50.000000  R,EQ.RATIO= 0.000000  PHI,EQ.RATIO=-1.000000

 THERMODYNAMIC PROPERTIES

 P, BAR            390.00   390.00   390.00   390.00   390.00   390.00   390.00   390.00
 T, K             5780.00  5790.00  5800.00  5810.00  5820.00  5830.00  5840.00  5850.00
 RHO, KG/CU M    1.2323 0 1.2279 0 1.2235 0 1.2191 0 1.2148 0 1.2105 0 1.2062 0 1.2019 0
 H, KJ/KG        174279.8 175051.6 175824.7 176599.0 177374.5 178151.2 178929.0 179707.9
 U, KJ/KG        142630.6 143289.2 143948.7 144609.1 145270.4 145932.5 146595.4 147259.1
 G, KJ/KG       -431096.3-432144.3-433193.7-434244.4-435296.4-436349.8-437404.5-438460.5
 S, KJ/(KG)(K)   104.7363 104.8698 105.0032 105.1366 105.2699 105.4033 105.5365 105.6698

 M, (1/n)           1.518    1.516    1.513    1.510    1.507    1.505    1.502    1.499
 (dLV/dLP)t      -1.11014 -1.11056 -1.11097 -1.11138 -1.11178 -1.11218 -1.11258 -1.11296
 (dLV/dLT)p        2.0653   2.0675   2.0697   2.0718   2.0738   2.0758   2.0777   2.0796
 Cp, KJ/(KG)(K)   77.1216  77.2475  77.3705  77.4906  77.6078  77.7221  77.8335  77.9418
 GAMMAs            1.2387   1.2392   1.2396   1.2401   1.2405   1.2410   1.2415   1.2419
 SON VEL,M/SEC     6261.4   6273.7   6286.0   6298.4   6310.8   6323.2   6335.7   6348.1

 TRANSPORT PROPERTIES (GASES ONLY)
   CONDUCTIVITY IN UNITS OF MILLIWATTS/(CM)(K)

 VISC,MILLIPOISE  0.89651  0.89766  0.89881  0.89995  0.90107  0.90219  0.90329  0.90438

  WITH EQUILIBRIUM REACTIONS

 Cp, KJ/(KG)(K)   77.1216  77.2475  77.3705  77.4906  77.6078  77.7221  77.8335  77.9418
 CONDUCTIVITY    122.4307 122.6427 122.8491 123.0500 123.2452 123.4348 123.6188 123.7971
 PRANDTL NUMBER    0.5647   0.5654   0.5661   0.5667   0.5674   0.5681   0.5687   0.5694

  WITH FROZEN REACTIONS

 Cp, KJ/(KG)(K)   20.6946  20.6974  20.7002  20.7028  20.7054  20.7080  20.7105  20.7129
 CONDUCTIVITY     25.7838  25.8139  25.8437  25.8732  25.9022  25.9310  25.9593  25.9874
 PRANDTL NUMBER    0.7196   0.7197   0.7199   0.7201   0.7203   0.7205   0.7206   0.7208

 MASS FRACTIONS

 *H               0.32758  0.33003  0.33249  0.33495  0.33741  0.33988  0.34236  0.34484
 *H2              0.67242  0.66997  0.66751  0.66505  0.66259  0.66012  0.65764  0.65516

  * THERMODYNAMIC PROPERTIES FITTED TO 20000.K

 NOTE. WEIGHT FRACTION OF FUEL IN TOTAL FUELS AND OF OXIDANT IN TOTAL OXIDANTS









               THERMODYNAMIC EQUILIBRIUM PROPERTIES AT ASSIGNED

                           TEMPERATURE AND PRESSURE

 CASE =                

             REACTANT                    WT FRACTION      ENERGY      TEMP
                                          (SEE NOTE)     KJ/KG-MOL      K  
 FUEL        H2                           1.0000000         0.000      0.000
 OXIDANT     H2                           1.0000000         0.000      0.000

 O/F=    1.00000  %FUEL= 50.000000  R,EQ.RATIO= 0.000000  PHI,EQ.RATIO=-1.000000

 THERMODYNAMIC PROPERTIES

 P, BAR            390.00   390.00   390.00   390.00   440.00   440.00   440.00   440.00
 T, K             5860.00  5870.00  5880.00  5890.00  5750.00  5760.00  5770.00  5780.00
 RHO, KG/CU M    1.1976 0 1.1934 0 1.1892 0 1.1850 0 1.4235 0 1.4185 0 1.4135 0 1.4086 0
 H, KJ/KG        180487.8 181268.8 182050.8 182833.8 168058.1 168802.6 169548.6 170296.0
 U, KJ/KG        147923.5 148588.7 149254.6 149921.1 137149.2 137784.6 138421.1 139058.7
 G, KJ/KG       -439517.9-440576.5-441636.6-442697.9-424207.6-425238.3-426270.2-427303.5
 S, KJ/(KG)(K)   105.8030 105.9362 106.0693 106.2023 103.0027 103.1321 103.2615 103.3909

 M, (1/n)           1.496    1.493    1.491    1.488    1.547    1.544    1.541    1.538
 (dLV/dLP)t      -1.11335 -1.11372 -1.11409 -1.11446 -1.10565 -1.10611 -1.10656 -1.10701
 (dLV/dLT)p        2.0814   2.0831   2.0848   2.0864   2.0273   2.0299   2.0325   2.0351
 Cp, KJ/(KG)(K)   78.0472  78.1496  78.2490  78.3453  74.3843  74.5278  74.6688  74.8073
 GAMMAs            1.2424   1.2429   1.2433   1.2438   1.2366   1.2371   1.2375   1.2379
 SON VEL,M/SEC     6360.6   6373.1   6385.7   6398.2   6182.5   6194.5   6206.4   6218.5

 TRANSPORT PROPERTIES (GASES ONLY)
   CONDUCTIVITY IN UNITS OF MILLIWATTS/(CM)(K)

 VISC,MILLIPOISE  0.90547  0.90654  0.90760  0.90865  0.89379  0.89506  0.89631  0.89756

  WITH EQUILIBRIUM REACTIONS

 Cp, KJ/(KG)(K)   78.0472  78.1496  78.2490  78.3453  74.3843  74.5278  74.6688  74.8073
 CONDUCTIVITY    123.9697 124.1366 124.2979 124.4534 119.0145 119.2699 119.5202 119.7655
 PRANDTL NUMBER    0.5701   0.5707   0.5714   0.5720   0.5586   0.5593   0.5600   0.5606

  WITH FROZEN REACTIONS

 Cp, KJ/(KG)(K)   20.7152  20.7175  20.7198  20.7219  20.6875  20.6906  20.6936  20.6965
 CONDUCTIVITY     26.0150  26.0424  26.0694  26.0960  25.7639  25.7975  25.8307  25.8635
 PRANDTL NUMBER    0.7210   0.7212   0.7214   0.7215   0.7177   0.7179   0.7181   0.7182

 MASS FRACTIONS

 *H               0.34732  0.34981  0.35230  0.35480  0.30329  0.30563  0.30796  0.31031
 *H2              0.65268  0.65019  0.64770  0.64520  0.69670  0.69437  0.69204  0.68969

  * THERMODYNAMIC PROPERTIES FITTED TO 20000.K

 NOTE. WEIGHT FRACTION OF FUEL IN TOTAL FUELS AND OF OXIDANT IN TOTAL OXIDANTS









               THERMODYNAMIC EQUILIBRIUM PROPERTIES AT ASSIGNED

                           TEMPERATURE AND PRESSURE

 CASE =                

             REACTANT                    WT FRACTION      ENERGY      TEMP
                                          (SEE NOTE)     KJ/KG-MOL      K  
 FUEL        H2                           1.0000000         0.000      0.000
 OXIDANT     H2                           1.0000000         0.000      0.000

 O/F=    1.00000  %FUEL= 50.000000  R,EQ.RATIO= 0.000000  PHI,EQ.RATIO=-1.000000

 THERMODYNAMIC PROPERTIES

 P, BAR            440.00   440.00   440.00   440.00   440.00   440.00   440.00   440.00
 T, K             5790.00  5800.00  5810.00  5820.00  5830.00  5840.00  5850.00  5860.00
 RHO, KG/CU M    1.4036 0 1.3987 0 1.3938 0 1.3889 0 1.3840 0 1.3792 0 1.3743 0 1.3695 0
 H, KJ/KG        171044.8 171794.9 172546.3 173299.0 174053.0 174808.2 175564.7 176322.3
 U, KJ/KG        139697.3 140336.9 140977.5 141619.1 142261.7 142905.1 143549.5 144194.7
 G, KJ/KG       -428338.1-429373.9-430411.1-431449.5-432489.2-433530.3-434572.6-435616.2
 S, KJ/(KG)(K)   103.5203 103.6498 103.7792 103.9087 104.0381 104.1675 104.2970 104.4264

 M, (1/n)           1.536    1.533    1.530    1.527    1.525    1.522    1.519    1.517
 (dLV/dLP)t      -1.10745 -1.10789 -1.10832 -1.10875 -1.10918 -1.10960 -1.11001 -1.11042
 (dLV/dLT)p        2.0376   2.0400   2.0424   2.0447   2.0470   2.0492   2.0514   2.0535
 Cp, KJ/(KG)(K)   74.9433  75.0768  75.2077  75.3360  75.4617  75.5848  75.7053  75.8231
 GAMMAs            1.2383   1.2388   1.2392   1.2397   1.2401   1.2405   1.2410   1.2414
 SON VEL,M/SEC     6230.5   6242.5   6254.6   6266.7   6278.9   6291.0   6303.2   6315.4

 TRANSPORT PROPERTIES (GASES ONLY)
   CONDUCTIVITY IN UNITS OF MILLIWATTS/(CM)(K)

 VISC,MILLIPOISE  0.89879  0.90002  0.90123  0.90244  0.90363  0.90482  0.90600  0.90716

  WITH EQUILIBRIUM REACTIONS

 Cp, KJ/(KG)(K)   74.9433  75.0768  75.2077  75.3360  75.4617  75.5848  75.7053  75.8231
 CONDUCTIVITY    120.0058 120.2409 120.4709 120.6958 120.9156 121.1301 121.3394 121.5436
 PRANDTL NUMBER    0.5613   0.5620   0.5626   0.5633   0.5639   0.5646   0.5653   0.5659

  WITH FROZEN REACTIONS

 Cp, KJ/(KG)(K)   20.6994  20.7022  20.7050  20.7076  20.7103  20.7128  20.7154  20.7178
 CONDUCTIVITY     25.8960  25.9281  25.9599  25.9913  26.0224  26.0532  26.0836  26.1136
 PRANDTL NUMBER    0.7184   0.7186   0.7188   0.7190   0.7192   0.7194   0.7195   0.7197

 MASS FRACTIONS

 *H               0.31266  0.31501  0.31737  0.31974  0.32211  0.32449  0.32687  0.32925
 *H2              0.68734  0.68499  0.68263  0.68026  0.67789  0.67551  0.67313  0.67074

  * THERMODYNAMIC PROPERTIES FITTED TO 20000.K

 NOTE. WEIGHT FRACTION OF FUEL IN TOTAL FUELS AND OF OXIDANT IN TOTAL OXIDANTS









               THERMODYNAMIC EQUILIBRIUM PROPERTIES AT ASSIGNED

                           TEMPERATURE AND PRESSURE

 CASE =                

             REACTANT                    WT FRACTION      ENERGY      TEMP
                                          (SEE NOTE)     KJ/KG-MOL      K  
 FUEL        H2                           1.0000000         0.000      0.000
 OXIDANT     H2                           1.0000000         0.000      0.000

 O/F=    1.00000  %FUEL= 50.000000  R,EQ.RATIO= 0.000000  PHI,EQ.RATIO=-1.000000

 THERMODYNAMIC PROPERTIES

 P, BAR            440.00   440.00   440.00   490.00   490.00   490.00   490.00   490.00
 T, K             5870.00  5880.00  5890.00  5750.00  5760.00  5770.00  5780.00  5790.00
 RHO, KG/CU M    1.3647 0 1.3600 0 1.3552 0 1.6032 0 1.5976 0 1.5921 0 1.5866 0 1.5811 0
 H, KJ/KG        177081.1 177841.1 178602.1 164707.0 165430.7 166155.9 166882.6 167610.7
 U, KJ/KG        144840.7 145487.6 146135.3 134142.8 134760.1 135378.6 135998.2 136618.9
 G, KJ/KG       -436661.1-437707.3-438754.8-420899.5-421918.6-422938.9-423960.5-424983.4
 S, KJ/(KG)(K)   104.5557 104.6851 104.8144 101.8446 101.9704 102.0962 102.2220 102.3479

 M, (1/n)           1.514    1.511    1.508    1.564    1.561    1.559    1.556    1.553
 (dLV/dLP)t      -1.11083 -1.11123 -1.11163 -1.10269 -1.10316 -1.10363 -1.10409 -1.10455
 (dLV/dLT)p        2.0555   2.0576   2.0595   1.9985   2.0013   2.0041   2.0069   2.0095
 Cp, KJ/(KG)(K)   75.9382  76.0507  76.1604  72.2971  72.4466  72.5938  72.7389  72.8817
 GAMMAs            1.2419   1.2423   1.2428   1.2360   1.2364   1.2368   1.2373   1.2377
 SON VEL,M/SEC     6327.6   6339.9   6352.1   6146.4   6158.1   6169.8   6181.6   6193.4

 TRANSPORT PROPERTIES (GASES ONLY)
   CONDUCTIVITY IN UNITS OF MILLIWATTS/(CM)(K)

 VISC,MILLIPOISE  0.90832  0.90946  0.91060  0.89408  0.89541  0.89672  0.89803  0.89933

  WITH EQUILIBRIUM REACTIONS

 Cp, KJ/(KG)(K)   75.9382  76.0507  76.1604  72.2971  72.4466  72.5938  72.7389  72.8817
 CONDUCTIVITY    121.7424 121.9361 122.1244 116.4505 116.7261 116.9971 117.2635 117.5253
 PRANDTL NUMBER    0.5666   0.5672   0.5679   0.5551   0.5557   0.5564   0.5571   0.5577

  WITH FROZEN REACTIONS

 Cp, KJ/(KG)(K)   20.7202  20.7225  20.7248  20.6888  20.6920  20.6951  20.6981  20.7010
 CONDUCTIVITY     26.1433  26.1727  26.2017  25.8161  25.8517  25.8869  25.9217  25.9562
 PRANDTL NUMBER    0.7199   0.7201   0.7203   0.7165   0.7167   0.7169   0.7171   0.7173

 MASS FRACTIONS

 *H               0.33165  0.33404  0.33645  0.28876  0.29100  0.29325  0.29550  0.29776
 *H2              0.66835  0.66595  0.66355  0.71124  0.70900  0.70675  0.70449  0.70224

  * THERMODYNAMIC PROPERTIES FITTED TO 20000.K

 NOTE. WEIGHT FRACTION OF FUEL IN TOTAL FUELS AND OF OXIDANT IN TOTAL OXIDANTS









               THERMODYNAMIC EQUILIBRIUM PROPERTIES AT ASSIGNED

                           TEMPERATURE AND PRESSURE

 CASE =                

             REACTANT                    WT FRACTION      ENERGY      TEMP
                                          (SEE NOTE)     KJ/KG-MOL      K  
 FUEL        H2                           1.0000000         0.000      0.000
 OXIDANT     H2                           1.0000000         0.000      0.000

 O/F=    1.00000  %FUEL= 50.000000  R,EQ.RATIO= 0.000000  PHI,EQ.RATIO=-1.000000

 THERMODYNAMIC PROPERTIES

 P, BAR            490.00   490.00   490.00   490.00   490.00   490.00   490.00   490.00
 T, K             5800.00  5810.00  5820.00  5830.00  5840.00  5850.00  5860.00  5870.00
 RHO, KG/CU M    1.5756 0 1.5701 0 1.5647 0 1.5593 0 1.5539 0 1.5485 0 1.5432 0 1.5378 0
 H, KJ/KG        168340.2 169071.1 169803.4 170537.0 171272.0 172008.2 172745.8 173484.6
 U, KJ/KG        137240.7 137863.5 138487.4 139112.3 139738.3 140365.2 140993.0 141621.8
 G, KJ/KG       -426007.5-427032.9-428059.5-429087.4-430116.5-431146.9-432178.6-433211.5
 S, KJ/(KG)(K)   102.4737 102.5996 102.7256 102.8515 102.9775 103.1034 103.2294 103.3554

 M, (1/n)           1.551    1.548    1.545    1.543    1.540    1.537    1.534    1.532
 (dLV/dLP)t      -1.10501 -1.10546 -1.10591 -1.10635 -1.10679 -1.10722 -1.10766 -1.10808
 (dLV/dLT)p        2.0122   2.0148   2.0173   2.0198   2.0223   2.0247   2.0271   2.0294
 Cp, KJ/(KG)(K)   73.0222  73.1604  73.2963  73.4299  73.5612  73.6901  73.8166  73.9407
 GAMMAs            1.2381   1.2385   1.2389   1.2394   1.2398   1.2402   1.2406   1.2411
 SON VEL,M/SEC     6205.2   6217.0   6228.8   6240.7   6252.6   6264.5   6276.5   6288.4

 TRANSPORT PROPERTIES (GASES ONLY)
   CONDUCTIVITY IN UNITS OF MILLIWATTS/(CM)(K)

 VISC,MILLIPOISE  0.90063  0.90191  0.90318  0.90444  0.90570  0.90694  0.90817  0.90940

  WITH EQUILIBRIUM REACTIONS

 Cp, KJ/(KG)(K)   73.0222  73.1604  73.2963  73.4299  73.5612  73.6901  73.8166  73.9407
 CONDUCTIVITY    117.7823 118.0347 118.2824 118.5253 118.7634 118.9968 119.2253 119.4490
 PRANDTL NUMBER    0.5584   0.5590   0.5597   0.5603   0.5610   0.5616   0.5623   0.5629

  WITH FROZEN REACTIONS

 Cp, KJ/(KG)(K)   20.7039  20.7068  20.7095  20.7122  20.7149  20.7175  20.7200  20.7225
 CONDUCTIVITY     25.9904  26.0242  26.0577  26.0908  26.1236  26.1560  26.1881  26.2199
 PRANDTL NUMBER    0.7174   0.7176   0.7178   0.7180   0.7182   0.7184   0.7185   0.7187

 MASS FRACTIONS

 *H               0.30003  0.30230  0.30458  0.30686  0.30915  0.31144  0.31374  0.31605
 *H2              0.69997  0.69770  0.69542  0.69314  0.69085  0.68855  0.68625  0.68395

  * THERMODYNAMIC PROPERTIES FITTED TO 20000.K

 NOTE. WEIGHT FRACTION OF FUEL IN TOTAL FUELS AND OF OXIDANT IN TOTAL OXIDANTS









               THERMODYNAMIC EQUILIBRIUM PROPERTIES AT ASSIGNED

                           TEMPERATURE AND PRESSURE

 CASE =                

             REACTANT                    WT FRACTION      ENERGY      TEMP
                                          (SEE NOTE)     KJ/KG-MOL      K  
 FUEL        H2                           1.0000000         0.000      0.000
 OXIDANT     H2                           1.0000000         0.000      0.000

 O/F=    1.00000  %FUEL= 50.000000  R,EQ.RATIO= 0.000000  PHI,EQ.RATIO=-1.000000

 THERMODYNAMIC PROPERTIES

 P, BAR            490.00   490.00   540.00   540.00   540.00   540.00   540.00   540.00
 T, K             5880.00  5890.00  5750.00  5760.00  5770.00  5780.00  5790.00  5800.00
 RHO, KG/CU M    1.5325 0 1.5273 0 1.7843 0 1.7781 0 1.7721 0 1.7660 0 1.7600 0 1.7539 0
 H, KJ/KG        174224.6 174965.8 161795.6 162500.6 163207.2 163915.2 164624.8 165335.8
 U, KJ/KG        142251.5 142882.1 131530.8 132131.9 132734.2 133337.6 133942.2 134547.9
 G, KJ/KG       -434245.7-435281.1-417944.4-418953.3-419963.4-420974.7-421987.2-423001.0
 S, KJ/(KG)(K)   103.4813 103.6073 100.8244 100.9469 101.0694 101.1920 101.3147 101.4374

 M, (1/n)           1.529    1.526    1.580    1.577    1.574    1.572    1.569    1.566
 (dLV/dLP)t      -1.10850 -1.10892 -1.09994 -1.10042 -1.10090 -1.10138 -1.10185 -1.10232
 (dLV/dLT)p        2.0316   2.0338   1.9718   1.9748   1.9777   1.9806   1.9834   1.9863
 Cp, KJ/(KG)(K)   74.0624  74.1817  70.4258  70.5791  70.7304  70.8797  71.0270  71.1723
 GAMMAs            1.2415   1.2420   1.2355   1.2359   1.2363   1.2367   1.2371   1.2375
 SON VEL,M/SEC     6300.4   6312.4   6115.0   6126.4   6137.9   6149.5   6161.0   6172.6

 TRANSPORT PROPERTIES (GASES ONLY)
   CONDUCTIVITY IN UNITS OF MILLIWATTS/(CM)(K)

 VISC,MILLIPOISE  0.91061  0.91182  0.89400  0.89538  0.89675  0.89812  0.89947  0.90082

  WITH EQUILIBRIUM REACTIONS

 Cp, KJ/(KG)(K)   74.0624  74.1817  70.4258  70.5791  70.7304  70.8797  71.0270  71.1723
 CONDUCTIVITY    119.6678 119.8817 114.0635 114.3546 114.6414 114.9240 115.2024 115.4764
 PRANDTL NUMBER    0.5636   0.5642   0.5520   0.5526   0.5533   0.5539   0.5546   0.5552

  WITH FROZEN REACTIONS

 Cp, KJ/(KG)(K)   20.7248  20.7272  20.6900  20.6932  20.6964  20.6995  20.7025  20.7055
 CONDUCTIVITY     26.2513  26.2824  25.8533  25.8906  25.9275  25.9641  26.0004  26.0363
 PRANDTL NUMBER    0.7189   0.7191   0.7155   0.7156   0.7158   0.7160   0.7162   0.7164

 MASS FRACTIONS

 *H               0.31836  0.32068  0.27614  0.27830  0.28046  0.28264  0.28481  0.28700
 *H2              0.68164  0.67932  0.72386  0.72170  0.71954  0.71736  0.71518  0.71300

  * THERMODYNAMIC PROPERTIES FITTED TO 20000.K

 NOTE. WEIGHT FRACTION OF FUEL IN TOTAL FUELS AND OF OXIDANT IN TOTAL OXIDANTS









               THERMODYNAMIC EQUILIBRIUM PROPERTIES AT ASSIGNED

                           TEMPERATURE AND PRESSURE

 CASE =                

             REACTANT                    WT FRACTION      ENERGY      TEMP
                                          (SEE NOTE)     KJ/KG-MOL      K  
 FUEL        H2                           1.0000000         0.000      0.000
 OXIDANT     H2                           1.0000000         0.000      0.000

 O/F=    1.00000  %FUEL= 50.000000  R,EQ.RATIO= 0.000000  PHI,EQ.RATIO=-1.000000

 THERMODYNAMIC PROPERTIES

 P, BAR            540.00   540.00   540.00   540.00   540.00   540.00   540.00   540.00
 T, K             5810.00  5820.00  5830.00  5840.00  5850.00  5860.00  5870.00  5880.00
 RHO, KG/CU M    1.7479 0 1.7420 0 1.7360 0 1.7301 0 1.7242 0 1.7183 0 1.7124 0 1.7066 0
 H, KJ/KG        166048.2 166762.1 167477.3 168194.0 168912.0 169631.3 170352.0 171073.9
 U, KJ/KG        135154.8 135762.7 136371.7 136981.8 137592.9 138205.0 138818.1 139432.2
 G, KJ/KG       -424016.0-425032.2-426049.6-427068.3-428088.2-429109.3-430131.7-431155.3
 S, KJ/(KG)(K)   101.5601 101.6829 101.8057 101.9285 102.0513 102.1742 102.2970 102.4199

 M, (1/n)           1.564    1.561    1.558    1.556    1.553    1.550    1.548    1.545
 (dLV/dLP)t      -1.10278 -1.10324 -1.10370 -1.10415 -1.10460 -1.10505 -1.10549 -1.10593
 (dLV/dLT)p        1.9890   1.9917   1.9944   1.9971   1.9997   2.0022   2.0047   2.0072
 Cp, KJ/(KG)(K)   71.3155  71.4566  71.5956  71.7326  71.8674  72.0000  72.1305  72.2588
 GAMMAs            1.2379   1.2383   1.2387   1.2392   1.2396   1.2400   1.2404   1.2408
 SON VEL,M/SEC     6184.2   6195.8   6207.4   6219.1   6230.8   6242.5   6254.2   6266.0

 TRANSPORT PROPERTIES (GASES ONLY)
   CONDUCTIVITY IN UNITS OF MILLIWATTS/(CM)(K)

 VISC,MILLIPOISE  0.90216  0.90348  0.90480  0.90611  0.90741  0.90871  0.90999  0.91127

  WITH EQUILIBRIUM REACTIONS

 Cp, KJ/(KG)(K)   71.3155  71.4566  71.5956  71.7326  71.8674  72.0000  72.1305  72.2588
 CONDUCTIVITY    115.7462 116.0115 116.2725 116.5291 116.7812 117.0289 117.2721 117.5108
 PRANDTL NUMBER    0.5559   0.5565   0.5571   0.5578   0.5584   0.5591   0.5597   0.5603

  WITH FROZEN REACTIONS

 Cp, KJ/(KG)(K)   20.7084  20.7112  20.7140  20.7167  20.7193  20.7219  20.7244  20.7269
 CONDUCTIVITY     26.0719  26.1071  26.1420  26.1766  26.2108  26.2447  26.2783  26.3115
 PRANDTL NUMBER    0.7166   0.7167   0.7169   0.7171   0.7173   0.7175   0.7177   0.7178

 MASS FRACTIONS

 *H               0.28919  0.29139  0.29359  0.29580  0.29802  0.30024  0.30246  0.30470
 *H2              0.71081  0.70861  0.70641  0.70420  0.70198  0.69976  0.69753  0.69530

  * THERMODYNAMIC PROPERTIES FITTED TO 20000.K

 NOTE. WEIGHT FRACTION OF FUEL IN TOTAL FUELS AND OF OXIDANT IN TOTAL OXIDANTS









               THERMODYNAMIC EQUILIBRIUM PROPERTIES AT ASSIGNED

                           TEMPERATURE AND PRESSURE

 CASE =                

             REACTANT                    WT FRACTION      ENERGY      TEMP
                                          (SEE NOTE)     KJ/KG-MOL      K  
 FUEL        H2                           1.0000000         0.000      0.000
 OXIDANT     H2                           1.0000000         0.000      0.000

 O/F=    1.00000  %FUEL= 50.000000  R,EQ.RATIO= 0.000000  PHI,EQ.RATIO=-1.000000

 THERMODYNAMIC PROPERTIES

 P, BAR            540.00   600.00   600.00   600.00   600.00   600.00   600.00   600.00
 T, K             5890.00  5750.00  5760.00  5770.00  5780.00  5790.00  5800.00  5810.00
 RHO, KG/CU M    1.7008 0 2.0032 0 1.9964 0 1.9897 0 1.9830 0 1.9763 0 1.9696 0 1.9630 0
 H, KJ/KG        171797.1 158759.6 159444.5 160131.1 160819.1 161508.7 162199.8 162892.3
 U, KJ/KG        140047.3 128807.0 129390.6 129975.5 130561.6 131148.8 131737.3 132326.8
 G, KJ/KG       -432180.1-414772.3-415770.3-416769.6-417770.0-418771.6-419774.4-420778.4
 S, KJ/(KG)(K)   102.5428  99.7447  99.8637  99.9828 100.1019 100.2211 100.3404 100.4597

 M, (1/n)           1.542    1.596    1.594    1.591    1.588    1.586    1.583    1.580
 (dLV/dLP)t      -1.10636 -1.09691 -1.09740 -1.09789 -1.09837 -1.09885 -1.09933 -1.09980
 (dLV/dLT)p        2.0096   1.9423   1.9454   1.9485   1.9515   1.9545   1.9574   1.9604
 Cp, KJ/(KG)(K)   72.3848  68.4196  68.5755  68.7297  68.8822  69.0328  69.1817  69.3287
 GAMMAs            1.2413   1.2350   1.2354   1.2358   1.2362   1.2366   1.2370   1.2373
 SON VEL,M/SEC     6277.7   6082.1   6093.4   6104.6   6115.9   6127.1   6138.5   6149.8

 TRANSPORT PROPERTIES (GASES ONLY)
   CONDUCTIVITY IN UNITS OF MILLIWATTS/(CM)(K)

 VISC,MILLIPOISE  0.91253  0.89359  0.89502  0.89644  0.89786  0.89927  0.90067  0.90206

  WITH EQUILIBRIUM REACTIONS

 Cp, KJ/(KG)(K)   72.3848  68.4196  68.5755  68.7297  68.8822  69.0328  69.1817  69.3287
 CONDUCTIVITY    117.7450 111.4156 111.7207 112.0220 112.3194 112.6129 112.9025 113.1881
 PRANDTL NUMBER    0.5610   0.5487   0.5494   0.5500   0.5506   0.5513   0.5519   0.5525

  WITH FROZEN REACTIONS

 Cp, KJ/(KG)(K)   20.7293  20.6912  20.6945  20.6977  20.7009  20.7040  20.7070  20.7100
 CONDUCTIVITY     26.3445  25.8834  25.9224  25.9612  25.9996  26.0377  26.0754  26.1128
 PRANDTL NUMBER    0.7180   0.7143   0.7145   0.7147   0.7149   0.7151   0.7152   0.7154

 MASS FRACTIONS

 *H               0.30693  0.26297  0.26504  0.26712  0.26921  0.27130  0.27340  0.27551
 *H2              0.69306  0.73703  0.73496  0.73288  0.73079  0.72870  0.72660  0.72449

  * THERMODYNAMIC PROPERTIES FITTED TO 20000.K

 NOTE. WEIGHT FRACTION OF FUEL IN TOTAL FUELS AND OF OXIDANT IN TOTAL OXIDANTS









               THERMODYNAMIC EQUILIBRIUM PROPERTIES AT ASSIGNED

                           TEMPERATURE AND PRESSURE

 CASE =                

             REACTANT                    WT FRACTION      ENERGY      TEMP
                                          (SEE NOTE)     KJ/KG-MOL      K  
 FUEL        H2                           1.0000000         0.000      0.000
 OXIDANT     H2                           1.0000000         0.000      0.000

 O/F=    1.00000  %FUEL= 50.000000  R,EQ.RATIO= 0.000000  PHI,EQ.RATIO=-1.000000

 THERMODYNAMIC PROPERTIES

 P, BAR            600.00   600.00   600.00   600.00   600.00   600.00   600.00   600.00
 T, K             5820.00  5830.00  5840.00  5850.00  5860.00  5870.00  5880.00  5890.00
 RHO, KG/CU M    1.9564 0 1.9498 0 1.9432 0 1.9367 0 1.9302 0 1.9237 0 1.9172 0 1.9108 0
 H, KJ/KG        163586.3 164281.8 164978.7 165677.0 166376.6 167077.7 167780.1 168483.8
 U, KJ/KG        132917.6 133509.4 134102.4 134696.4 135291.5 135887.6 136484.8 137083.0
 G, KJ/KG       -421783.6-422790.0-423797.6-424806.3-425816.3-426827.5-427839.8-428853.4
 S, KJ/(KG)(K)   100.5790 100.6984 100.8178 100.9373 101.0568 101.1763 101.2959 101.4155

 M, (1/n)           1.578    1.575    1.573    1.570    1.567    1.565    1.562    1.560
 (dLV/dLP)t      -1.10027 -1.10074 -1.10121 -1.10167 -1.10213 -1.10259 -1.10304 -1.10349
 (dLV/dLT)p        1.9632   1.9661   1.9689   1.9716   1.9743   1.9770   1.9797   1.9822
 Cp, KJ/(KG)(K)   69.4739  69.6172  69.7586  69.8981  70.0357  70.1714  70.3051  70.4369
 GAMMAs            1.2377   1.2381   1.2385   1.2389   1.2393   1.2397   1.2401   1.2406
 SON VEL,M/SEC     6161.2   6172.5   6184.0   6195.4   6206.8   6218.3   6229.8   6241.4

 TRANSPORT PROPERTIES (GASES ONLY)
   CONDUCTIVITY IN UNITS OF MILLIWATTS/(CM)(K)

 VISC,MILLIPOISE  0.90345  0.90482  0.90619  0.90755  0.90890  0.91024  0.91158  0.91290

  WITH EQUILIBRIUM REACTIONS

 Cp, KJ/(KG)(K)   69.4739  69.6172  69.7586  69.8981  70.0357  70.1714  70.3051  70.4369
 CONDUCTIVITY    113.4698 113.7475 114.0211 114.2908 114.5563 114.8177 115.0750 115.3281
 PRANDTL NUMBER    0.5532   0.5538   0.5544   0.5550   0.5557   0.5563   0.5569   0.5576

  WITH FROZEN REACTIONS

 Cp, KJ/(KG)(K)   20.7129  20.7158  20.7185  20.7213  20.7239  20.7265  20.7290  20.7315
 CONDUCTIVITY     26.1499  26.1867  26.2231  26.2592  26.2950  26.3304  26.3656  26.4004
 PRANDTL NUMBER    0.7156   0.7158   0.7160   0.7162   0.7163   0.7165   0.7167   0.7169

 MASS FRACTIONS

 *H               0.27762  0.27973  0.28186  0.28399  0.28612  0.28826  0.29041  0.29256
 *H2              0.72238  0.72026  0.71814  0.71601  0.71388  0.71173  0.70959  0.70743

  * THERMODYNAMIC PROPERTIES FITTED TO 20000.K

 NOTE. WEIGHT FRACTION OF FUEL IN TOTAL FUELS AND OF OXIDANT IN TOTAL OXIDANTS









               THERMODYNAMIC EQUILIBRIUM PROPERTIES AT ASSIGNED

                           TEMPERATURE AND PRESSURE

 CASE =                

             REACTANT                    WT FRACTION      ENERGY      TEMP
                                          (SEE NOTE)     KJ/KG-MOL      K  
 FUEL        H2                           1.0000000         0.000      0.000
 OXIDANT     H2                           1.0000000         0.000      0.000

 O/F=    1.00000  %FUEL= 50.000000  R,EQ.RATIO= 0.000000  PHI,EQ.RATIO=-1.000000

 THERMODYNAMIC PROPERTIES

 P, BAR            670.00   670.00   670.00   670.00   670.00   670.00   670.00   670.00
 T, K             5750.00  5760.00  5770.00  5780.00  5790.00  5800.00  5810.00  5820.00
 RHO, KG/CU M    2.2605 0 2.2530 0 2.2455 0 2.2381 0 2.2307 0 2.2233 0 2.2159 0 2.2086 0
 H, KJ/KG        155712.8 156377.1 157043.0 157710.4 158379.4 159049.9 159721.9 160395.3
 U, KJ/KG        126073.6 126639.3 127206.2 127774.3 128343.6 128914.2 129485.9 130058.8
 G, KJ/KG       -411484.5-412471.5-413459.7-414449.0-415439.5-416431.1-417423.9-418417.8
 S, KJ/(KG)(K)    98.6430  98.7584  98.8739  98.9895  99.1052  99.2209  99.3366  99.4524

 M, (1/n)           1.613    1.610    1.608    1.605    1.603    1.600    1.598    1.595
 (dLV/dLP)t      -1.09369 -1.09418 -1.09468 -1.09517 -1.09565 -1.09614 -1.09662 -1.09710
 (dLV/dLT)p        1.9110   1.9142   1.9174   1.9205   1.9236   1.9267   1.9297   1.9328
 Cp, KJ/(KG)(K)   66.3526  66.5100  66.6658  66.8200  66.9727  67.1237  67.2732  67.4210
 GAMMAs            1.2346   1.2349   1.2353   1.2357   1.2360   1.2364   1.2368   1.2372
 SON VEL,M/SEC     6049.1   6060.1   6071.0   6082.0   6093.1   6104.1   6115.2   6126.3

 TRANSPORT PROPERTIES (GASES ONLY)
   CONDUCTIVITY IN UNITS OF MILLIWATTS/(CM)(K)

 VISC,MILLIPOISE  0.89281  0.89429  0.89577  0.89723  0.89869  0.90015  0.90159  0.90303

  WITH EQUILIBRIUM REACTIONS

 Cp, KJ/(KG)(K)   66.3526  66.5100  66.6658  66.8200  66.9727  67.1237  67.2732  67.4210
 CONDUCTIVITY    108.5951 108.9119 109.2253 109.5353 109.8417 110.1446 110.4439 110.7397
 PRANDTL NUMBER    0.5455   0.5461   0.5467   0.5473   0.5480   0.5486   0.5492   0.5498

  WITH FROZEN REACTIONS

 Cp, KJ/(KG)(K)   20.6925  20.6958  20.6991  20.7023  20.7055  20.7086  20.7117  20.7146
 CONDUCTIVITY     25.9040  25.9448  25.9853  26.0255  26.0654  26.1049  26.1441  26.1831
 PRANDTL NUMBER    0.7132   0.7134   0.7135   0.7137   0.7139   0.7141   0.7143   0.7144

 MASS FRACTIONS

 *H               0.24976  0.25174  0.25373  0.25573  0.25773  0.25974  0.26176  0.26378
 *H2              0.75024  0.74826  0.74627  0.74427  0.74227  0.74026  0.73824  0.73622

  * THERMODYNAMIC PROPERTIES FITTED TO 20000.K

 NOTE. WEIGHT FRACTION OF FUEL IN TOTAL FUELS AND OF OXIDANT IN TOTAL OXIDANTS









               THERMODYNAMIC EQUILIBRIUM PROPERTIES AT ASSIGNED

                           TEMPERATURE AND PRESSURE

 CASE =                

             REACTANT                    WT FRACTION      ENERGY      TEMP
                                          (SEE NOTE)     KJ/KG-MOL      K  
 FUEL        H2                           1.0000000         0.000      0.000
 OXIDANT     H2                           1.0000000         0.000      0.000

 O/F=    1.00000  %FUEL= 50.000000  R,EQ.RATIO= 0.000000  PHI,EQ.RATIO=-1.000000

 THERMODYNAMIC PROPERTIES

 P, BAR            670.00   670.00   670.00   670.00   670.00   670.00   670.00   740.00
 T, K             5830.00  5840.00  5850.00  5860.00  5870.00  5880.00  5890.00  5750.00
 RHO, KG/CU M    2.2012 0 2.1939 0 2.1867 0 2.1794 0 2.1722 0 2.1650 0 2.1578 0 2.5197 0
 H, KJ/KG        161070.3 161746.7 162424.5 163103.8 163784.4 164466.5 165149.9 153083.5
 U, KJ/KG        130632.8 131208.0 131784.3 132361.7 132940.2 133519.7 134100.4 123714.7
 G, KJ/KG       -419412.9-420409.2-421406.6-422405.2-423404.9-424405.8-425407.9-408552.7
 S, KJ/(KG)(K)    99.5683  99.6842  99.8002  99.9162 100.0323 100.1484 100.2645  97.6759

 M, (1/n)           1.593    1.590    1.587    1.585    1.582    1.580    1.577    1.628
 (dLV/dLP)t      -1.09758 -1.09805 -1.09852 -1.09899 -1.09946 -1.09992 -1.10038 -1.09077
 (dLV/dLT)p        1.9357   1.9387   1.9416   1.9444   1.9472   1.9500   1.9528   1.8826
 Cp, KJ/(KG)(K)   67.5672  67.7118  67.8546  67.9958  68.1352  68.2729  68.4089  64.5278
 GAMMAs            1.2375   1.2379   1.2383   1.2387   1.2391   1.2395   1.2399   1.2342
 SON VEL,M/SEC     6137.4   6148.6   6159.7   6170.9   6182.2   6193.4   6204.7   6020.6

 TRANSPORT PROPERTIES (GASES ONLY)
   CONDUCTIVITY IN UNITS OF MILLIWATTS/(CM)(K)

 VISC,MILLIPOISE  0.90446  0.90588  0.90730  0.90870  0.91010  0.91150  0.91288  0.89184

  WITH EQUILIBRIUM REACTIONS

 Cp, KJ/(KG)(K)   67.5672  67.7118  67.8546  67.9958  68.1352  68.2729  68.4089  64.5278
 CONDUCTIVITY    111.0318 111.3203 111.6052 111.8863 112.1637 112.4374 112.7072 106.0288
 PRANDTL NUMBER    0.5504   0.5510   0.5516   0.5522   0.5529   0.5535   0.5541   0.5428

  WITH FROZEN REACTIONS

 Cp, KJ/(KG)(K)   20.7176  20.7204  20.7232  20.7259  20.7286  20.7312  20.7337  20.6935
 CONDUCTIVITY     26.2217  26.2600  26.2979  26.3356  26.3729  26.4100  26.4467  25.9134
 PRANDTL NUMBER    0.7146   0.7148   0.7150   0.7151   0.7153   0.7155   0.7157   0.7122

 MASS FRACTIONS

 *H               0.26581  0.26784  0.26988  0.27193  0.27398  0.27604  0.27811  0.23836
 *H2              0.73419  0.73216  0.73012  0.72807  0.72602  0.72396  0.72189  0.76164

  * THERMODYNAMIC PROPERTIES FITTED TO 20000.K

 NOTE. WEIGHT FRACTION OF FUEL IN TOTAL FUELS AND OF OXIDANT IN TOTAL OXIDANTS









               THERMODYNAMIC EQUILIBRIUM PROPERTIES AT ASSIGNED

                           TEMPERATURE AND PRESSURE

 CASE =                

             REACTANT                    WT FRACTION      ENERGY      TEMP
                                          (SEE NOTE)     KJ/KG-MOL      K  
 FUEL        H2                           1.0000000         0.000      0.000
 OXIDANT     H2                           1.0000000         0.000      0.000

 O/F=    1.00000  %FUEL= 50.000000  R,EQ.RATIO= 0.000000  PHI,EQ.RATIO=-1.000000

 THERMODYNAMIC PROPERTIES

 P, BAR            740.00   740.00   740.00   740.00   740.00   740.00   740.00   740.00
 T, K             5760.00  5770.00  5780.00  5790.00  5800.00  5810.00  5820.00  5830.00
 RHO, KG/CU M    2.5114 0 2.5032 0 2.4951 0 2.4869 0 2.4788 0 2.4707 0 2.4626 0 2.4545 0
 H, KJ/KG        153729.6 154377.2 155026.4 155677.1 156329.4 156983.2 157638.4 158295.2
 U, KJ/KG        124264.5 124815.5 125367.7 125921.2 126475.9 127031.8 127588.8 128147.1
 G, KJ/KG       -409530.0-410508.5-411488.0-412468.7-413450.5-414433.5-415417.5-416402.7
 S, KJ/(KG)(K)    97.7881  97.9005  98.0129  98.1254  98.2379  98.3505  98.4632  98.5760

 M, (1/n)           1.625    1.623    1.620    1.618    1.615    1.613    1.610    1.608
 (dLV/dLP)t      -1.09127 -1.09176 -1.09226 -1.09275 -1.09323 -1.09372 -1.09421 -1.09469
 (dLV/dLT)p        1.8859   1.8891   1.8924   1.8956   1.8987   1.9018   1.9049   1.9080
 Cp, KJ/(KG)(K)   64.6853  64.8414  64.9961  65.1495  65.3014  65.4519  65.6009  65.7485
 GAMMAs            1.2346   1.2349   1.2353   1.2356   1.2360   1.2363   1.2367   1.2371
 SON VEL,M/SEC     6031.3   6042.0   6052.8   6063.6   6074.4   6085.2   6096.1   6107.0

 TRANSPORT PROPERTIES (GASES ONLY)
   CONDUCTIVITY IN UNITS OF MILLIWATTS/(CM)(K)

 VISC,MILLIPOISE  0.89336  0.89487  0.89638  0.89788  0.89938  0.90087  0.90235  0.90382

  WITH EQUILIBRIUM REACTIONS

 Cp, KJ/(KG)(K)   64.6853  64.8414  64.9961  65.1495  65.3014  65.4519  65.6009  65.7485
 CONDUCTIVITY    106.3539 106.6759 106.9948 107.3104 107.6229 107.9322 108.2382 108.5409
 PRANDTL NUMBER    0.5433   0.5439   0.5445   0.5451   0.5457   0.5463   0.5469   0.5475

  WITH FROZEN REACTIONS

 Cp, KJ/(KG)(K)   20.6969  20.7003  20.7036  20.7068  20.7100  20.7131  20.7161  20.7191
 CONDUCTIVITY     25.9557  25.9977  26.0394  26.0808  26.1219  26.1627  26.2032  26.2434
 PRANDTL NUMBER    0.7124   0.7125   0.7127   0.7129   0.7130   0.7132   0.7134   0.7136

 MASS FRACTIONS

 *H               0.24026  0.24217  0.24409  0.24601  0.24794  0.24988  0.25182  0.25377
 *H2              0.75974  0.75783  0.75591  0.75399  0.75206  0.75012  0.74818  0.74623

  * THERMODYNAMIC PROPERTIES FITTED TO 20000.K

 NOTE. WEIGHT FRACTION OF FUEL IN TOTAL FUELS AND OF OXIDANT IN TOTAL OXIDANTS









               THERMODYNAMIC EQUILIBRIUM PROPERTIES AT ASSIGNED

                           TEMPERATURE AND PRESSURE

 CASE =                

             REACTANT                    WT FRACTION      ENERGY      TEMP
                                          (SEE NOTE)     KJ/KG-MOL      K  
 FUEL        H2                           1.0000000         0.000      0.000
 OXIDANT     H2                           1.0000000         0.000      0.000

 O/F=    1.00000  %FUEL= 50.000000  R,EQ.RATIO= 0.000000  PHI,EQ.RATIO=-1.000000

 THERMODYNAMIC PROPERTIES

 P, BAR            740.00   740.00   740.00   740.00   740.00   740.00   825.00   825.00
 T, K             5840.00  5850.00  5860.00  5870.00  5880.00  5890.00  5750.00  5760.00
 RHO, KG/CU M    2.4465 0 2.4385 0 2.4306 0 2.4226 0 2.4147 0 2.4068 0 2.8365 0 2.8274 0
 H, KJ/KG        158953.4 159613.1 160274.2 160936.7 161600.6 162266.0 150328.1 150954.6
 U, KJ/KG        128706.5 129267.0 129828.7 130391.4 130955.3 131520.3 121242.7 121775.4
 G, KJ/KG       -417389.1-418376.5-419365.1-420354.8-421345.6-422337.6-405374.9-406341.8
 S, KJ/(KG)(K)    98.6888  98.8016  98.9146  99.0275  99.1405  99.2536  96.6440  96.7529

 M, (1/n)           1.605    1.603    1.600    1.598    1.595    1.593    1.644    1.641
 (dLV/dLP)t      -1.09517 -1.09564 -1.09612 -1.09659 -1.09706 -1.09753 -1.08757 -1.08807
 (dLV/dLT)p        1.9110   1.9140   1.9170   1.9199   1.9228   1.9257   1.8515   1.8548
 Cp, KJ/(KG)(K)   65.8946  66.0392  66.1823  66.3238  66.4638  66.6023  62.5766  62.7332
 GAMMAs            1.2374   1.2378   1.2382   1.2386   1.2389   1.2393   1.2339   1.2342
 SON VEL,M/SEC     6117.9   6128.9   6139.8   6150.8   6161.8   6172.8   5990.6   6001.1

 TRANSPORT PROPERTIES (GASES ONLY)
   CONDUCTIVITY IN UNITS OF MILLIWATTS/(CM)(K)

 VISC,MILLIPOISE  0.90529  0.90675  0.90820  0.90965  0.91109  0.91252  0.89050  0.89206

  WITH EQUILIBRIUM REACTIONS

 Cp, KJ/(KG)(K)   65.8946  66.0392  66.1823  66.3238  66.4638  66.6023  62.5766  62.7332
 CONDUCTIVITY    108.8402 109.1363 109.4290 109.7182 110.0041 110.2865 103.2075 103.5393
 PRANDTL NUMBER    0.5481   0.5487   0.5493   0.5499   0.5505   0.5511   0.5399   0.5405

  WITH FROZEN REACTIONS

 Cp, KJ/(KG)(K)   20.7220  20.7249  20.7277  20.7304  20.7331  20.7357  20.6946  20.6981
 CONDUCTIVITY     26.2832  26.3228  26.3621  26.4010  26.4397  26.4780  25.9145  25.9583
 PRANDTL NUMBER    0.7137   0.7139   0.7141   0.7143   0.7144   0.7146   0.7111   0.7113

 MASS FRACTIONS

 *H               0.25573  0.25769  0.25966  0.26163  0.26361  0.26560  0.22641  0.22823
 *H2              0.74427  0.74231  0.74034  0.73837  0.73639  0.73440  0.77359  0.77177

  * THERMODYNAMIC PROPERTIES FITTED TO 20000.K

 NOTE. WEIGHT FRACTION OF FUEL IN TOTAL FUELS AND OF OXIDANT IN TOTAL OXIDANTS









               THERMODYNAMIC EQUILIBRIUM PROPERTIES AT ASSIGNED

                           TEMPERATURE AND PRESSURE

 CASE =                

             REACTANT                    WT FRACTION      ENERGY      TEMP
                                          (SEE NOTE)     KJ/KG-MOL      K  
 FUEL        H2                           1.0000000         0.000      0.000
 OXIDANT     H2                           1.0000000         0.000      0.000

 O/F=    1.00000  %FUEL= 50.000000  R,EQ.RATIO= 0.000000  PHI,EQ.RATIO=-1.000000

 THERMODYNAMIC PROPERTIES

 P, BAR            825.00   825.00   825.00   825.00   825.00   825.00   825.00   825.00
 T, K             5770.00  5780.00  5790.00  5800.00  5810.00  5820.00  5830.00  5840.00
 RHO, KG/CU M    2.8183 0 2.8092 0 2.8002 0 2.7912 0 2.7822 0 2.7732 0 2.7643 0 2.7554 0
 H, KJ/KG        151582.7 152212.4 152843.6 153476.3 154110.5 154746.3 155383.5 156022.2
 U, KJ/KG        122309.4 122844.6 123381.1 123918.8 124457.7 124997.8 125539.0 126081.4
 G, KJ/KG       -407309.9-408279.1-409249.3-410220.7-411193.1-412166.6-413141.3-414117.0
 S, KJ/(KG)(K)    96.8618  96.9708  97.0800  97.1891  97.2984  97.4077  97.5171  97.6266

 M, (1/n)           1.639    1.636    1.634    1.632    1.629    1.627    1.624    1.622
 (dLV/dLP)t      -1.08857 -1.08906 -1.08955 -1.09004 -1.09053 -1.09101 -1.09150 -1.09198
 (dLV/dLT)p        1.8582   1.8614   1.8647   1.8679   1.8711   1.8743   1.8774   1.8805
 Cp, KJ/(KG)(K)   62.8886  63.0429  63.1959  63.3476  63.4981  63.6474  63.7953  63.9420
 GAMMAs            1.2345   1.2349   1.2352   1.2356   1.2359   1.2363   1.2366   1.2370
 SON VEL,M/SEC     6011.6   6022.1   6032.6   6043.2   6053.8   6064.4   6075.0   6085.7

 TRANSPORT PROPERTIES (GASES ONLY)
   CONDUCTIVITY IN UNITS OF MILLIWATTS/(CM)(K)

 VISC,MILLIPOISE  0.89362  0.89516  0.89671  0.89824  0.89977  0.90130  0.90282  0.90433

  WITH EQUILIBRIUM REACTIONS

 Cp, KJ/(KG)(K)   62.8886  63.0429  63.1959  63.3476  63.4981  63.6474  63.7953  63.9420
 CONDUCTIVITY    103.8684 104.1946 104.5180 104.8386 105.1563 105.4710 105.7828 106.0916
 PRANDTL NUMBER    0.5411   0.5416   0.5422   0.5428   0.5433   0.5439   0.5445   0.5450

  WITH FROZEN REACTIONS

 Cp, KJ/(KG)(K)   20.7015  20.7049  20.7082  20.7114  20.7146  20.7177  20.7207  20.7237
 CONDUCTIVITY     26.0019  26.0451  26.0881  26.1307  26.1731  26.2152  26.2570  26.2985
 PRANDTL NUMBER    0.7115   0.7116   0.7118   0.7120   0.7121   0.7123   0.7125   0.7126

 MASS FRACTIONS

 *H               0.23005  0.23189  0.23372  0.23557  0.23742  0.23928  0.24115  0.24302
 *H2              0.76995  0.76811  0.76627  0.76443  0.76258  0.76072  0.75885  0.75698

  * THERMODYNAMIC PROPERTIES FITTED TO 20000.K

 NOTE. WEIGHT FRACTION OF FUEL IN TOTAL FUELS AND OF OXIDANT IN TOTAL OXIDANTS









               THERMODYNAMIC EQUILIBRIUM PROPERTIES AT ASSIGNED

                           TEMPERATURE AND PRESSURE

 CASE =                

             REACTANT                    WT FRACTION      ENERGY      TEMP
                                          (SEE NOTE)     KJ/KG-MOL      K  
 FUEL        H2                           1.0000000         0.000      0.000
 OXIDANT     H2                           1.0000000         0.000      0.000

 O/F=    1.00000  %FUEL= 50.000000  R,EQ.RATIO= 0.000000  PHI,EQ.RATIO=-1.000000

 THERMODYNAMIC PROPERTIES

 P, BAR            825.00   825.00   825.00   825.00   825.00   910.00   910.00   910.00
 T, K             5850.00  5860.00  5870.00  5880.00  5890.00  5750.00  5760.00  5770.00
 RHO, KG/CU M    2.7466 0 2.7378 0 2.7290 0 2.7202 0 2.7114 0 3.1553 0 3.1453 0 3.1353 0
 H, KJ/KG        156662.3 157303.9 157946.9 158591.4 159237.2 147949.4 148558.8 149169.7
 U, KJ/KG        126625.0 127169.7 127715.6 128262.6 128810.7 119108.6 119626.4 120145.4
 G, KJ/KG       -415093.8-416071.7-417050.7-418030.8-419012.0-402534.8-403492.7-404451.6
 S, KJ/(KG)(K)    97.7361  97.8457  97.9553  98.0650  98.1747  95.7364  95.8423  95.9482

 M, (1/n)           1.619    1.617    1.614    1.612    1.610    1.658    1.655    1.653
 (dLV/dLP)t      -1.09246 -1.09294 -1.09342 -1.09389 -1.09436 -1.08470 -1.08519 -1.08569
 (dLV/dLT)p        1.8836   1.8867   1.8897   1.8927   1.8957   1.8236   1.8269   1.8303
 Cp, KJ/(KG)(K)   64.0873  64.2313  64.3739  64.5152  64.6551  60.8617  61.0168  61.1708
 GAMMAs            1.2373   1.2377   1.2380   1.2384   1.2388   1.2336   1.2339   1.2342
 SON VEL,M/SEC     6096.4   6107.1   6117.8   6128.6   6139.4   5964.7   5974.9   5985.2

 TRANSPORT PROPERTIES (GASES ONLY)
   CONDUCTIVITY IN UNITS OF MILLIWATTS/(CM)(K)

 VISC,MILLIPOISE  0.90583  0.90733  0.90882  0.91031  0.91179  0.88908  0.89067  0.89225

  WITH EQUILIBRIUM REACTIONS

 Cp, KJ/(KG)(K)   64.0873  64.2313  64.3739  64.5152  64.6551  60.8617  61.0168  61.1708
 CONDUCTIVITY    106.3974 106.7002 106.9999 107.2966 107.5901 100.6628 100.9988 101.3324
 PRANDTL NUMBER    0.5456   0.5462   0.5468   0.5473   0.5479   0.5375   0.5381   0.5386

  WITH FROZEN REACTIONS

 Cp, KJ/(KG)(K)   20.7266  20.7295  20.7323  20.7350  20.7377  20.6956  20.6991  20.7026
 CONDUCTIVITY     26.3397  26.3806  26.4212  26.4615  26.5016  25.9076  25.9527  25.9976
 PRANDTL NUMBER    0.7128   0.7130   0.7131   0.7133   0.7135   0.7102   0.7104   0.7105

 MASS FRACTIONS

 *H               0.24489  0.24678  0.24867  0.25056  0.25246  0.21609  0.21784  0.21959
 *H2              0.75510  0.75322  0.75133  0.74944  0.74753  0.78391  0.78216  0.78041

  * THERMODYNAMIC PROPERTIES FITTED TO 20000.K

 NOTE. WEIGHT FRACTION OF FUEL IN TOTAL FUELS AND OF OXIDANT IN TOTAL OXIDANTS









               THERMODYNAMIC EQUILIBRIUM PROPERTIES AT ASSIGNED

                           TEMPERATURE AND PRESSURE

 CASE =                

             REACTANT                    WT FRACTION      ENERGY      TEMP
                                          (SEE NOTE)     KJ/KG-MOL      K  
 FUEL        H2                           1.0000000         0.000      0.000
 OXIDANT     H2                           1.0000000         0.000      0.000

 O/F=    1.00000  %FUEL= 50.000000  R,EQ.RATIO= 0.000000  PHI,EQ.RATIO=-1.000000

 THERMODYNAMIC PROPERTIES

 P, BAR            910.00   910.00   910.00   910.00   910.00   910.00   910.00   910.00
 T, K             5780.00  5790.00  5800.00  5810.00  5820.00  5830.00  5840.00  5850.00
 RHO, KG/CU M    3.1254 0 3.1155 0 3.1056 0 3.0958 0 3.0860 0 3.0762 0 3.0664 0 3.0567 0
 H, KJ/KG        149782.2 150396.2 151011.7 151628.7 152247.2 152867.2 153488.7 154111.6
 U, KJ/KG        120665.7 121187.2 121709.9 122233.8 122758.9 123285.2 123812.6 124341.2
 G, KJ/KG       -405411.6-406372.7-407334.9-408298.1-409262.3-410227.6-411194.0-412161.5
 S, KJ/(KG)(K)    96.0543  96.1604  96.2667  96.3729  96.4793  96.5857  96.6922  96.7988

 M, (1/n)           1.651    1.648    1.646    1.643    1.641    1.639    1.636    1.634
 (dLV/dLP)t      -1.08618 -1.08667 -1.08716 -1.08764 -1.08813 -1.08861 -1.08910 -1.08958
 (dLV/dLT)p        1.8336   1.8369   1.8401   1.8434   1.8466   1.8498   1.8529   1.8561
 Cp, KJ/(KG)(K)   61.3238  61.4757  61.6265  61.7762  61.9247  62.0721  62.2183  62.3634
 GAMMAs            1.2346   1.2349   1.2352   1.2356   1.2359   1.2362   1.2366   1.2369
 SON VEL,M/SEC     5995.5   6005.8   6016.2   6026.5   6036.9   6047.3   6057.8   6068.2

 TRANSPORT PROPERTIES (GASES ONLY)
   CONDUCTIVITY IN UNITS OF MILLIWATTS/(CM)(K)

 VISC,MILLIPOISE  0.89383  0.89541  0.89698  0.89854  0.90010  0.90166  0.90320  0.90474

  WITH EQUILIBRIUM REACTIONS

 Cp, KJ/(KG)(K)   61.3238  61.4757  61.6265  61.7762  61.9247  62.0721  62.2183  62.3634
 CONDUCTIVITY    101.6634 101.9918 102.3177 102.6410 102.9616 103.2796 103.5949 103.9074
 PRANDTL NUMBER    0.5392   0.5397   0.5403   0.5408   0.5414   0.5419   0.5425   0.5430

  WITH FROZEN REACTIONS

 Cp, KJ/(KG)(K)   20.7060  20.7094  20.7127  20.7159  20.7191  20.7222  20.7252  20.7282
 CONDUCTIVITY     26.0421  26.0864  26.1304  26.1741  26.2175  26.2606  26.3035  26.3461
 PRANDTL NUMBER    0.7107   0.7108   0.7110   0.7112   0.7113   0.7115   0.7117   0.7118

 MASS FRACTIONS

 *H               0.22135  0.22311  0.22488  0.22666  0.22844  0.23023  0.23203  0.23383
 *H2              0.77865  0.77689  0.77512  0.77334  0.77156  0.76977  0.76797  0.76617

  * THERMODYNAMIC PROPERTIES FITTED TO 20000.K

 NOTE. WEIGHT FRACTION OF FUEL IN TOTAL FUELS AND OF OXIDANT IN TOTAL OXIDANTS









               THERMODYNAMIC EQUILIBRIUM PROPERTIES AT ASSIGNED

                           TEMPERATURE AND PRESSURE

 CASE =                

             REACTANT                    WT FRACTION      ENERGY      TEMP
                                          (SEE NOTE)     KJ/KG-MOL      K  
 FUEL        H2                           1.0000000         0.000      0.000
 OXIDANT     H2                           1.0000000         0.000      0.000

 O/F=    1.00000  %FUEL= 50.000000  R,EQ.RATIO= 0.000000  PHI,EQ.RATIO=-1.000000

 THERMODYNAMIC PROPERTIES

 P, BAR            910.00   910.00   910.00   910.00
 T, K             5860.00  5870.00  5880.00  5890.00
 RHO, KG/CU M    3.0470 0 3.0374 0 3.0278 0 3.0182 0
 H, KJ/KG        154735.9 155361.7 155988.9 156617.6
 U, KJ/KG        124871.0 125401.8 125933.9 126467.0
 G, KJ/KG       -413130.0-414099.6-415070.2-416042.0
 S, KJ/(KG)(K)    96.9055  97.0122  97.1189  97.2257

 M, (1/n)           1.631    1.629    1.627    1.624
 (dLV/dLP)t      -1.09006 -1.09054 -1.09101 -1.09149
 (dLV/dLT)p        1.8592   1.8623   1.8653   1.8684
 Cp, KJ/(KG)(K)   62.5073  62.6500  62.7914  62.9317
 GAMMAs            1.2373   1.2376   1.2380   1.2383
 SON VEL,M/SEC     6078.7   6089.2   6099.8   6110.3

 TRANSPORT PROPERTIES (GASES ONLY)
   CONDUCTIVITY IN UNITS OF MILLIWATTS/(CM)(K)

 VISC,MILLIPOISE  0.90628  0.90781  0.90933  0.91085

  WITH EQUILIBRIUM REACTIONS

 Cp, KJ/(KG)(K)   62.5073  62.6500  62.7914  62.9317
 CONDUCTIVITY    104.2173 104.5243 104.8286 105.1300
 PRANDTL NUMBER    0.5436   0.5441   0.5447   0.5452

  WITH FROZEN REACTIONS

 Cp, KJ/(KG)(K)   20.7311  20.7339  20.7367  20.7394
 CONDUCTIVITY     26.3884  26.4304  26.4722  26.5136
 PRANDTL NUMBER    0.7120   0.7122   0.7123   0.7125

 MASS FRACTIONS

 *H               0.23564  0.23746  0.23928  0.24110
 *H2              0.76436  0.76254  0.76072  0.75890

  * THERMODYNAMIC PROPERTIES FITTED TO 20000.K

 NOTE. WEIGHT FRACTION OF FUEL IN TOTAL FUELS AND OF OXIDANT IN TOTAL OXIDANTS



  
