
 *******************************************************************************

         NASA-GLENN CHEMICAL EQUILIBRIUM PROGRAM CEA2, MAY 21, 2004
                   BY  BONNIE MCBRIDE AND SANFORD GORDON
      REFS: NASA RP-1311, PART I, 1994 AND NASA RP-1311, PART II, 1996

 *******************************************************************************



  prob tp ions
  p,bar= 2.5,2.8,3.1,3.5,3.9,4.4,4.9,5.4,6.0,6.7,7.4,8.25,9.1,10.0,11.0
  t,k= 300,305,310,315,320,325,330,335,340,345,350,355,360,365,370
  
  
  reac
  fuel H2                wt%=100.0000
  oxid H2                wt%=100.0000
  
  output short
  
  output massf
  
  output siunits
  
  output transport
  
 end





               THERMODYNAMIC EQUILIBRIUM PROPERTIES AT ASSIGNED

                           TEMPERATURE AND PRESSURE

 CASE =                

             REACTANT                    WT FRACTION      ENERGY      TEMP
                                          (SEE NOTE)     KJ/KG-MOL      K  
 FUEL        H2                           1.0000000         0.000      0.000
 OXIDANT     H2                           1.0000000         0.000      0.000

 O/F=    1.00000  %FUEL= 50.000000  R,EQ.RATIO= 0.000000  PHI,EQ.RATIO=-1.000000

 THERMODYNAMIC PROPERTIES

 P, BAR            2.5000   2.5000   2.5000   2.5000   2.5000   2.5000   2.5000   2.5000
 T, K              300.00   305.00   310.00   315.00   320.00   325.00   330.00   335.00
 RHO, KG/CU M    2.0204-1 1.9873-1 1.9553-1 1.9242-1 1.8942-1 1.8650-1 1.8368-1 1.8094-1
 H, KJ/KG          26.469   98.065   169.74   241.49   313.30   385.18   457.11   529.10
 U, KJ/KG        -1210.88 -1159.90 -1108.85 -1057.73 -1006.53  -955.28  -903.97  -852.60
 G, KJ/KG        -18314.1 -18620.3 -18927.8 -19236.4 -19546.1 -19856.9 -20168.9 -20482.0
 S, KJ/(KG)(K)    61.1353  61.3718  61.6048  61.8344  62.0606  62.2835  62.5031  62.7196

 M, (1/n)           2.016    2.016    2.016    2.016    2.016    2.016    2.016    2.016
 (dLV/dLP)t      -1.00000 -0.99999 -0.99999 -0.99999 -0.99999 -0.99999 -0.99999 -0.99999
 (dLV/dLT)p        1.0000   1.0000   1.0000   1.0000   1.0000   1.0000   1.0000   1.0000
 Cp, KJ/(KG)(K)   14.3110  14.3272  14.3423  14.3563  14.3693  14.3813  14.3923  14.4026
 GAMMAs            1.4049   1.4043   1.4037   1.4031   1.4026   1.4021   1.4017   1.4013
 SON VEL,M/SEC     1318.5   1329.1   1339.7   1350.2   1360.6   1370.9   1381.2   1391.5

 TRANSPORT PROPERTIES (GASES ONLY)
   CONDUCTIVITY IN UNITS OF MILLIWATTS/(CM)(K)

 VISC,MILLIPOISE  0.00000  0.00000  0.00000  0.00000  0.00000  0.00000  0.00000  0.00001

  WITH EQUILIBRIUM REACTIONS

 Cp, KJ/(KG)(K)   14.3110  14.3272  14.3423  14.3563  14.3693  14.3813  14.3923  14.4026
 CONDUCTIVITY      0.0000   0.0000   0.0000   0.0000   0.0000   0.0000   0.0000   0.0000
 PRANDTL NUMBER    2.3304   2.3307   2.3311   2.3315   2.3320   2.3326   2.3331   2.3336

  WITH FROZEN REACTIONS

 Cp, KJ/(KG)(K)   14.3110  14.3272  14.3423  14.3563  14.3693  14.3813  14.3923  14.4026
 CONDUCTIVITY      0.0000   0.0000   0.0000   0.0000   0.0000   0.0000   0.0000   0.0000
 PRANDTL NUMBER    2.3304   2.3307   2.3311   2.3315   2.3320   2.3326   2.3331   2.3336

 MASS FRACTIONS

 *H2              1.00000  1.00000  1.00000  1.00000  1.00000  1.00000  1.00000  1.00000

  * THERMODYNAMIC PROPERTIES FITTED TO 20000.K

 NOTE. WEIGHT FRACTION OF FUEL IN TOTAL FUELS AND OF OXIDANT IN TOTAL OXIDANTS









               THERMODYNAMIC EQUILIBRIUM PROPERTIES AT ASSIGNED

                           TEMPERATURE AND PRESSURE

 CASE =                

             REACTANT                    WT FRACTION      ENERGY      TEMP
                                          (SEE NOTE)     KJ/KG-MOL      K  
 FUEL        H2                           1.0000000         0.000      0.000
 OXIDANT     H2                           1.0000000         0.000      0.000

 O/F=    1.00000  %FUEL= 50.000000  R,EQ.RATIO= 0.000000  PHI,EQ.RATIO=-1.000000

 THERMODYNAMIC PROPERTIES

 P, BAR            2.5000   2.5000   2.5000   2.5000   2.5000   2.5000   2.5000   2.8000
 T, K              340.00   345.00   350.00   355.00   360.00   365.00   370.00   300.00
 RHO, KG/CU M    1.7828-1 1.7569-1 1.7318-1 1.7074-1 1.6837-1 1.6606-1 1.6382-1 2.2629-1
 H, KJ/KG          601.14   673.22   745.34   817.50   889.70   961.93  1034.19   26.469
 U, KJ/KG         -801.19  -749.73  -698.23  -646.69  -595.11  -543.51  -491.87 -1210.88
 G, KJ/KG        -20796.1 -21111.3 -21427.5 -21744.8 -22063.1 -22382.4 -22702.7 -18173.8
 S, KJ/(KG)(K)    62.9331  63.1435  63.3511  63.5558  63.7578  63.9570  64.1536  60.6677

 M, (1/n)           2.016    2.016    2.016    2.016    2.016    2.016    2.016    2.016
 (dLV/dLP)t      -0.99999 -0.99999 -0.99999 -0.99999 -0.99999 -0.99999 -0.99999 -0.99999
 (dLV/dLT)p        1.0000   1.0000   1.0000   1.0000   1.0000   1.0000   1.0000   1.0000
 Cp, KJ/(KG)(K)   14.4120  14.4207  14.4286  14.4360  14.4427  14.4489  14.4545  14.3109
 GAMMAs            1.4009   1.4006   1.4003   1.4000   1.3997   1.3995   1.3993   1.4049
 SON VEL,M/SEC     1401.6   1411.7   1421.8   1431.7   1441.6   1451.5   1461.3   1318.5

 TRANSPORT PROPERTIES (GASES ONLY)
   CONDUCTIVITY IN UNITS OF MILLIWATTS/(CM)(K)

 VISC,MILLIPOISE  0.00006  0.00047  0.00365  0.02244  0.06844  0.09572  0.10228  0.00000

  WITH EQUILIBRIUM REACTIONS

 Cp, KJ/(KG)(K)   14.4120  14.4207  14.4286  14.4360  14.4427  14.4489  14.4545  14.3109
 CONDUCTIVITY      0.0003   0.0029   0.0232   0.1647   0.8083   1.7426   2.1023   0.0000
 PRANDTL NUMBER    2.3333   2.3270   2.2749   1.9675   1.2230   0.7937   0.7032   2.3304

  WITH FROZEN REACTIONS

 Cp, KJ/(KG)(K)   14.4120  14.4207  14.4286  14.4360  14.4427  14.4489  14.4545  14.3109
 CONDUCTIVITY      0.0003   0.0029   0.0232   0.1647   0.8083   1.7426   2.1023   0.0000
 PRANDTL NUMBER    2.3333   2.3270   2.2749   1.9675   1.2230   0.7937   0.7032   2.3304

 MASS FRACTIONS

 *H2              1.00000  1.00000  1.00000  1.00000  1.00000  1.00000  1.00000  1.00000

  * THERMODYNAMIC PROPERTIES FITTED TO 20000.K

 NOTE. WEIGHT FRACTION OF FUEL IN TOTAL FUELS AND OF OXIDANT IN TOTAL OXIDANTS









               THERMODYNAMIC EQUILIBRIUM PROPERTIES AT ASSIGNED

                           TEMPERATURE AND PRESSURE

 CASE =                

             REACTANT                    WT FRACTION      ENERGY      TEMP
                                          (SEE NOTE)     KJ/KG-MOL      K  
 FUEL        H2                           1.0000000         0.000      0.000
 OXIDANT     H2                           1.0000000         0.000      0.000

 O/F=    1.00000  %FUEL= 50.000000  R,EQ.RATIO= 0.000000  PHI,EQ.RATIO=-1.000000

 THERMODYNAMIC PROPERTIES

 P, BAR            2.8000   2.8000   2.8000   2.8000   2.8000   2.8000   2.8000   2.8000
 T, K              305.00   310.00   315.00   320.00   325.00   330.00   335.00   340.00
 RHO, KG/CU M    2.2258-1 2.1899-1 2.1552-1 2.1215-1 2.0888-1 2.0572-1 2.0265-1 1.9967-1
 H, KJ/KG          98.065   169.74   241.49   313.30   385.18   457.11   529.10   601.14
 U, KJ/KG        -1159.90 -1108.85 -1057.72 -1006.53  -955.28  -903.97  -852.60  -801.19
 G, KJ/KG        -18477.8 -18782.9 -19089.1 -19396.5 -19705.0 -20014.7 -20325.4 -20637.2
 S, KJ/(KG)(K)    60.9043  61.1374  61.3670  61.5932  61.8160  62.0357  62.2522  62.4656

 M, (1/n)           2.016    2.016    2.016    2.016    2.016    2.016    2.016    2.016
 (dLV/dLP)t      -0.99999 -0.99999 -0.99999 -0.99999 -0.99999 -0.99999 -0.99999 -0.99999
 (dLV/dLT)p        1.0000   1.0000   1.0000   1.0000   1.0000   1.0000   1.0000   1.0000
 Cp, KJ/(KG)(K)   14.3272  14.3423  14.3563  14.3693  14.3813  14.3923  14.4026  14.4120
 GAMMAs            1.4043   1.4037   1.4031   1.4026   1.4021   1.4017   1.4013   1.4009
 SON VEL,M/SEC     1329.1   1339.7   1350.2   1360.6   1370.9   1381.2   1391.5   1401.6

 TRANSPORT PROPERTIES (GASES ONLY)
   CONDUCTIVITY IN UNITS OF MILLIWATTS/(CM)(K)

 VISC,MILLIPOISE  0.00000  0.00000  0.00000  0.00000  0.00000  0.00000  0.00002  0.00015

  WITH EQUILIBRIUM REACTIONS

 Cp, KJ/(KG)(K)   14.3272  14.3423  14.3563  14.3693  14.3813  14.3923  14.4026  14.4120
 CONDUCTIVITY      0.0000   0.0000   0.0000   0.0000   0.0000   0.0000   0.0001   0.0009
 PRANDTL NUMBER    2.3307   2.3311   2.3315   2.3320   2.3326   2.3331   2.3334   2.3317

  WITH FROZEN REACTIONS

 Cp, KJ/(KG)(K)   14.3272  14.3423  14.3563  14.3693  14.3813  14.3923  14.4026  14.4120
 CONDUCTIVITY      0.0000   0.0000   0.0000   0.0000   0.0000   0.0000   0.0001   0.0009
 PRANDTL NUMBER    2.3307   2.3311   2.3315   2.3320   2.3326   2.3331   2.3334   2.3317

 MASS FRACTIONS

 *H2              1.00000  1.00000  1.00000  1.00000  1.00000  1.00000  1.00000  1.00000

  * THERMODYNAMIC PROPERTIES FITTED TO 20000.K

 NOTE. WEIGHT FRACTION OF FUEL IN TOTAL FUELS AND OF OXIDANT IN TOTAL OXIDANTS









               THERMODYNAMIC EQUILIBRIUM PROPERTIES AT ASSIGNED

                           TEMPERATURE AND PRESSURE

 CASE =                

             REACTANT                    WT FRACTION      ENERGY      TEMP
                                          (SEE NOTE)     KJ/KG-MOL      K  
 FUEL        H2                           1.0000000         0.000      0.000
 OXIDANT     H2                           1.0000000         0.000      0.000

 O/F=    1.00000  %FUEL= 50.000000  R,EQ.RATIO= 0.000000  PHI,EQ.RATIO=-1.000000

 THERMODYNAMIC PROPERTIES

 P, BAR            2.8000   2.8000   2.8000   2.8000   2.8000   2.8000   3.1000   3.1000
 T, K              345.00   350.00   355.00   360.00   365.00   370.00   300.00   305.00
 RHO, KG/CU M    1.9677-1 1.9396-1 1.9123-1 1.8858-1 1.8599-1 1.8348-1 2.5054-1 2.4643-1
 H, KJ/KG          673.22   745.34   817.50   889.70   961.93  1034.19   26.469   98.065
 U, KJ/KG         -749.73  -698.23  -646.69  -595.11  -543.51  -491.87 -1210.88 -1159.90
 G, KJ/KG        -20950.0 -21263.9 -21578.9 -21894.8 -22211.8 -22529.7 -18047.9 -18349.7
 S, KJ/(KG)(K)    62.6761  62.8837  63.0884  63.2903  63.4896  63.6862  60.2479  60.4845

 M, (1/n)           2.016    2.016    2.016    2.016    2.016    2.016    2.016    2.016
 (dLV/dLP)t      -0.99999 -0.99999 -0.99999 -0.99999 -0.99999 -0.99999 -0.99999 -0.99999
 (dLV/dLT)p        1.0000   1.0000   1.0000   1.0000   1.0000   1.0000   1.0000   1.0000
 Cp, KJ/(KG)(K)   14.4207  14.4286  14.4360  14.4427  14.4489  14.4545  14.3109  14.3272
 GAMMAs            1.4006   1.4003   1.4000   1.3997   1.3995   1.3993   1.4049   1.4043
 SON VEL,M/SEC     1411.7   1421.8   1431.7   1441.6   1451.5   1461.3   1318.5   1329.1

 TRANSPORT PROPERTIES (GASES ONLY)
   CONDUCTIVITY IN UNITS OF MILLIWATTS/(CM)(K)

 VISC,MILLIPOISE  0.00127  0.00934  0.04409  0.08617  0.09984  0.10296  0.00000  0.00000

  WITH EQUILIBRIUM REACTIONS

 Cp, KJ/(KG)(K)   14.4207  14.4286  14.4360  14.4427  14.4489  14.4545  14.3109  14.3272
 CONDUCTIVITY      0.0079   0.0618   0.3949   1.3317   1.9838   2.1495   0.0000   0.0000
 PRANDTL NUMBER    2.3136   2.1806   1.6120   0.9345   0.7272   0.6924   2.3304   2.3307

  WITH FROZEN REACTIONS

 Cp, KJ/(KG)(K)   14.4207  14.4286  14.4360  14.4427  14.4489  14.4545  14.3109  14.3272
 CONDUCTIVITY      0.0079   0.0618   0.3949   1.3317   1.9838   2.1495   0.0000   0.0000
 PRANDTL NUMBER    2.3136   2.1806   1.6120   0.9345   0.7272   0.6924   2.3304   2.3307

 MASS FRACTIONS

 *H2              1.00000  1.00000  1.00000  1.00000  1.00000  1.00000  1.00000  1.00000

  * THERMODYNAMIC PROPERTIES FITTED TO 20000.K

 NOTE. WEIGHT FRACTION OF FUEL IN TOTAL FUELS AND OF OXIDANT IN TOTAL OXIDANTS









               THERMODYNAMIC EQUILIBRIUM PROPERTIES AT ASSIGNED

                           TEMPERATURE AND PRESSURE

 CASE =                

             REACTANT                    WT FRACTION      ENERGY      TEMP
                                          (SEE NOTE)     KJ/KG-MOL      K  
 FUEL        H2                           1.0000000         0.000      0.000
 OXIDANT     H2                           1.0000000         0.000      0.000

 O/F=    1.00000  %FUEL= 50.000000  R,EQ.RATIO= 0.000000  PHI,EQ.RATIO=-1.000000

 THERMODYNAMIC PROPERTIES

 P, BAR            3.1000   3.1000   3.1000   3.1000   3.1000   3.1000   3.1000   3.1000
 T, K              310.00   315.00   320.00   325.00   330.00   335.00   340.00   345.00
 RHO, KG/CU M    2.4245-1 2.3861-1 2.3488-1 2.3126-1 2.2776-1 2.2436-1 2.2106-1 2.1786-1
 H, KJ/KG          169.74   241.49   313.30   385.18   457.11   529.10   601.14   673.22
 U, KJ/KG        -1108.85 -1057.72 -1006.53  -955.28  -903.97  -852.60  -801.19  -749.73
 G, KJ/KG        -18652.7 -18956.9 -19262.2 -19568.6 -19876.1 -20184.8 -20494.4 -20805.2
 S, KJ/(KG)(K)    60.7176  60.9472  61.1734  61.3962  61.6159  61.8324  62.0458  62.2563

 M, (1/n)           2.016    2.016    2.016    2.016    2.016    2.016    2.016    2.016
 (dLV/dLP)t      -0.99999 -0.99999 -0.99999 -0.99999 -0.99999 -0.99999 -0.99999 -0.99999
 (dLV/dLT)p        1.0000   1.0000   1.0000   1.0000   1.0000   1.0000   1.0000   1.0000
 Cp, KJ/(KG)(K)   14.3423  14.3563  14.3693  14.3813  14.3923  14.4026  14.4120  14.4207
 GAMMAs            1.4037   1.4031   1.4026   1.4021   1.4017   1.4013   1.4009   1.4006
 SON VEL,M/SEC     1339.7   1350.2   1360.6   1370.9   1381.2   1391.5   1401.6   1411.7

 TRANSPORT PROPERTIES (GASES ONLY)
   CONDUCTIVITY IN UNITS OF MILLIWATTS/(CM)(K)

 VISC,MILLIPOISE  0.00000  0.00000  0.00000  0.00000  0.00000  0.00002  0.00015  0.00127

  WITH EQUILIBRIUM REACTIONS

 Cp, KJ/(KG)(K)   14.3423  14.3563  14.3693  14.3813  14.3923  14.4026  14.4120  14.4207
 CONDUCTIVITY      0.0000   0.0000   0.0000   0.0000   0.0000   0.0001   0.0009   0.0079
 PRANDTL NUMBER    2.3311   2.3315   2.3320   2.3326   2.3331   2.3334   2.3317   2.3136

  WITH FROZEN REACTIONS

 Cp, KJ/(KG)(K)   14.3423  14.3563  14.3693  14.3813  14.3923  14.4026  14.4120  14.4207
 CONDUCTIVITY      0.0000   0.0000   0.0000   0.0000   0.0000   0.0001   0.0009   0.0079
 PRANDTL NUMBER    2.3311   2.3315   2.3320   2.3326   2.3331   2.3334   2.3317   2.3136

 MASS FRACTIONS

 *H2              1.00000  1.00000  1.00000  1.00000  1.00000  1.00000  1.00000  1.00000

  * THERMODYNAMIC PROPERTIES FITTED TO 20000.K

 NOTE. WEIGHT FRACTION OF FUEL IN TOTAL FUELS AND OF OXIDANT IN TOTAL OXIDANTS









               THERMODYNAMIC EQUILIBRIUM PROPERTIES AT ASSIGNED

                           TEMPERATURE AND PRESSURE

 CASE =                

             REACTANT                    WT FRACTION      ENERGY      TEMP
                                          (SEE NOTE)     KJ/KG-MOL      K  
 FUEL        H2                           1.0000000         0.000      0.000
 OXIDANT     H2                           1.0000000         0.000      0.000

 O/F=    1.00000  %FUEL= 50.000000  R,EQ.RATIO= 0.000000  PHI,EQ.RATIO=-1.000000

 THERMODYNAMIC PROPERTIES

 P, BAR            3.1000   3.1000   3.1000   3.1000   3.1000   3.5000   3.5000   3.5000
 T, K              350.00   355.00   360.00   365.00   370.00   300.00   305.00   310.00
 RHO, KG/CU M    2.1475-1 2.1172-1 2.0878-1 2.0592-1 2.0314-1 2.8286-1 2.7823-1 2.7374-1
 H, KJ/KG          745.34   817.50   889.70   961.93  1034.19   26.469   98.065   169.74
 U, KJ/KG         -698.23  -646.69  -595.11  -543.51  -491.87 -1210.88 -1159.90 -1108.85
 G, KJ/KG        -21117.0 -21429.8 -21743.7 -22058.5 -22374.4 -17897.7 -18197.0 -18497.5
 S, KJ/(KG)(K)    62.4639  62.6686  62.8705  63.0698  63.2664  59.7473  59.9840  60.2170

 M, (1/n)           2.016    2.016    2.016    2.016    2.016    2.016    2.016    2.016
 (dLV/dLP)t      -0.99999 -0.99999 -0.99999 -0.99999 -0.99999 -0.99999 -0.99999 -0.99999
 (dLV/dLT)p        1.0000   1.0000   1.0000   1.0000   1.0000   1.0000   1.0000   1.0000
 Cp, KJ/(KG)(K)   14.4286  14.4360  14.4427  14.4489  14.4545  14.3109  14.3272  14.3423
 GAMMAs            1.4003   1.4000   1.3997   1.3995   1.3993   1.4049   1.4043   1.4037
 SON VEL,M/SEC     1421.8   1431.7   1441.6   1451.5   1461.3   1318.5   1329.1   1339.7

 TRANSPORT PROPERTIES (GASES ONLY)
   CONDUCTIVITY IN UNITS OF MILLIWATTS/(CM)(K)

 VISC,MILLIPOISE  0.00934  0.04409  0.08617  0.09984  0.10296  0.00000  0.00000  0.00000

  WITH EQUILIBRIUM REACTIONS

 Cp, KJ/(KG)(K)   14.4286  14.4360  14.4427  14.4489  14.4545  14.3109  14.3272  14.3423
 CONDUCTIVITY      0.0618   0.3949   1.3317   1.9838   2.1495   0.0000   0.0000   0.0000
 PRANDTL NUMBER    2.1806   1.6120   0.9345   0.7272   0.6924   2.3304   2.3307   2.3311

  WITH FROZEN REACTIONS

 Cp, KJ/(KG)(K)   14.4286  14.4360  14.4427  14.4489  14.4545  14.3109  14.3272  14.3423
 CONDUCTIVITY      0.0618   0.3949   1.3317   1.9838   2.1495   0.0000   0.0000   0.0000
 PRANDTL NUMBER    2.1806   1.6120   0.9345   0.7272   0.6924   2.3304   2.3307   2.3311

 MASS FRACTIONS

 *H2              1.00000  1.00000  1.00000  1.00000  1.00000  1.00000  1.00000  1.00000

  * THERMODYNAMIC PROPERTIES FITTED TO 20000.K

 NOTE. WEIGHT FRACTION OF FUEL IN TOTAL FUELS AND OF OXIDANT IN TOTAL OXIDANTS









               THERMODYNAMIC EQUILIBRIUM PROPERTIES AT ASSIGNED

                           TEMPERATURE AND PRESSURE

 CASE =                

             REACTANT                    WT FRACTION      ENERGY      TEMP
                                          (SEE NOTE)     KJ/KG-MOL      K  
 FUEL        H2                           1.0000000         0.000      0.000
 OXIDANT     H2                           1.0000000         0.000      0.000

 O/F=    1.00000  %FUEL= 50.000000  R,EQ.RATIO= 0.000000  PHI,EQ.RATIO=-1.000000

 THERMODYNAMIC PROPERTIES

 P, BAR            3.5000   3.5000   3.5000   3.5000   3.5000   3.5000   3.5000   3.5000
 T, K              315.00   320.00   325.00   330.00   335.00   340.00   345.00   350.00
 RHO, KG/CU M    2.6939-1 2.6518-1 2.6111-1 2.5715-1 2.5331-1 2.4959-1 2.4597-1 2.4245-1
 H, KJ/KG          241.49   313.30   385.18   457.11   529.10   601.14   673.22   745.34
 U, KJ/KG        -1057.72 -1006.53  -955.28  -903.97  -852.60  -801.19  -749.73  -698.23
 G, KJ/KG        -18799.2 -19102.0 -19405.9 -19710.9 -20017.1 -20324.3 -20632.5 -20941.8
 S, KJ/(KG)(K)    60.4466  60.6728  60.8957  61.1153  61.3318  61.5453  61.7557  61.9633

 M, (1/n)           2.016    2.016    2.016    2.016    2.016    2.016    2.016    2.016
 (dLV/dLP)t      -0.99999 -0.99999 -0.99999 -0.99999 -0.99999 -0.99999 -0.99999 -0.99999
 (dLV/dLT)p        1.0000   1.0000   1.0000   1.0000   1.0000   1.0000   1.0000   1.0000
 Cp, KJ/(KG)(K)   14.3563  14.3693  14.3813  14.3923  14.4026  14.4120  14.4207  14.4286
 GAMMAs            1.4031   1.4026   1.4021   1.4017   1.4013   1.4009   1.4006   1.4003
 SON VEL,M/SEC     1350.2   1360.6   1370.9   1381.2   1391.5   1401.6   1411.7   1421.8

 TRANSPORT PROPERTIES (GASES ONLY)
   CONDUCTIVITY IN UNITS OF MILLIWATTS/(CM)(K)

 VISC,MILLIPOISE  0.00000  0.00000  0.00000  0.00000  0.00002  0.00015  0.00127  0.00934

  WITH EQUILIBRIUM REACTIONS

 Cp, KJ/(KG)(K)   14.3563  14.3693  14.3813  14.3923  14.4026  14.4120  14.4207  14.4286
 CONDUCTIVITY      0.0000   0.0000   0.0000   0.0000   0.0001   0.0009   0.0079   0.0618
 PRANDTL NUMBER    2.3315   2.3320   2.3326   2.3331   2.3334   2.3317   2.3136   2.1806

  WITH FROZEN REACTIONS

 Cp, KJ/(KG)(K)   14.3563  14.3693  14.3813  14.3923  14.4026  14.4120  14.4207  14.4286
 CONDUCTIVITY      0.0000   0.0000   0.0000   0.0000   0.0001   0.0009   0.0079   0.0618
 PRANDTL NUMBER    2.3315   2.3320   2.3326   2.3331   2.3334   2.3317   2.3136   2.1806

 MASS FRACTIONS

 *H2              1.00000  1.00000  1.00000  1.00000  1.00000  1.00000  1.00000  1.00000

  * THERMODYNAMIC PROPERTIES FITTED TO 20000.K

 NOTE. WEIGHT FRACTION OF FUEL IN TOTAL FUELS AND OF OXIDANT IN TOTAL OXIDANTS









               THERMODYNAMIC EQUILIBRIUM PROPERTIES AT ASSIGNED

                           TEMPERATURE AND PRESSURE

 CASE =                

             REACTANT                    WT FRACTION      ENERGY      TEMP
                                          (SEE NOTE)     KJ/KG-MOL      K  
 FUEL        H2                           1.0000000         0.000      0.000
 OXIDANT     H2                           1.0000000         0.000      0.000

 O/F=    1.00000  %FUEL= 50.000000  R,EQ.RATIO= 0.000000  PHI,EQ.RATIO=-1.000000

 THERMODYNAMIC PROPERTIES

 P, BAR            3.5000   3.5000   3.5000   3.5000   3.9000   3.9000   3.9000   3.9000
 T, K              355.00   360.00   365.00   370.00   300.00   305.00   310.00   315.00
 RHO, KG/CU M    2.3904-1 2.3572-1 2.3249-1 2.2935-1 3.1519-1 3.1002-1 3.0502-1 3.0018-1
 H, KJ/KG          817.50   889.70   961.93  1034.19   26.469   98.065   169.74   241.49
 U, KJ/KG         -646.69  -595.11  -543.51  -491.87 -1210.88 -1159.90 -1108.85 -1057.72
 G, KJ/KG        -21252.1 -21563.5 -21875.8 -22189.2 -17763.8 -18060.9 -18359.2 -18658.6
 S, KJ/(KG)(K)    62.1680  62.3700  62.5692  62.7659  59.3010  59.5376  59.7707  60.0003

 M, (1/n)           2.016    2.016    2.016    2.016    2.016    2.016    2.016    2.016
 (dLV/dLP)t      -0.99999 -0.99999 -0.99999 -0.99999 -0.99999 -0.99999 -0.99999 -0.99999
 (dLV/dLT)p        1.0000   1.0000   1.0000   1.0000   1.0000   1.0000   1.0000   1.0000
 Cp, KJ/(KG)(K)   14.4360  14.4427  14.4489  14.4545  14.3109  14.3272  14.3423  14.3563
 GAMMAs            1.4000   1.3997   1.3995   1.3993   1.4049   1.4043   1.4037   1.4031
 SON VEL,M/SEC     1431.7   1441.6   1451.5   1461.3   1318.5   1329.1   1339.7   1350.2

 TRANSPORT PROPERTIES (GASES ONLY)
   CONDUCTIVITY IN UNITS OF MILLIWATTS/(CM)(K)

 VISC,MILLIPOISE  0.04409  0.08617  0.09984  0.10296  0.00000  0.00000  0.00000  0.00000

  WITH EQUILIBRIUM REACTIONS

 Cp, KJ/(KG)(K)   14.4360  14.4427  14.4489  14.4545  14.3109  14.3272  14.3423  14.3563
 CONDUCTIVITY      0.3949   1.3317   1.9838   2.1495   0.0000   0.0000   0.0000   0.0000
 PRANDTL NUMBER    1.6120   0.9345   0.7272   0.6924   2.3304   2.3307   2.3311   2.3315

  WITH FROZEN REACTIONS

 Cp, KJ/(KG)(K)   14.4360  14.4427  14.4489  14.4545  14.3109  14.3272  14.3423  14.3563
 CONDUCTIVITY      0.3949   1.3317   1.9838   2.1495   0.0000   0.0000   0.0000   0.0000
 PRANDTL NUMBER    1.6120   0.9345   0.7272   0.6924   2.3304   2.3307   2.3311   2.3315

 MASS FRACTIONS

 *H2              1.00000  1.00000  1.00000  1.00000  1.00000  1.00000  1.00000  1.00000

  * THERMODYNAMIC PROPERTIES FITTED TO 20000.K

 NOTE. WEIGHT FRACTION OF FUEL IN TOTAL FUELS AND OF OXIDANT IN TOTAL OXIDANTS









               THERMODYNAMIC EQUILIBRIUM PROPERTIES AT ASSIGNED

                           TEMPERATURE AND PRESSURE

 CASE =                

             REACTANT                    WT FRACTION      ENERGY      TEMP
                                          (SEE NOTE)     KJ/KG-MOL      K  
 FUEL        H2                           1.0000000         0.000      0.000
 OXIDANT     H2                           1.0000000         0.000      0.000

 O/F=    1.00000  %FUEL= 50.000000  R,EQ.RATIO= 0.000000  PHI,EQ.RATIO=-1.000000

 THERMODYNAMIC PROPERTIES

 P, BAR            3.9000   3.9000   3.9000   3.9000   3.9000   3.9000   3.9000   3.9000
 T, K              320.00   325.00   330.00   335.00   340.00   345.00   350.00   355.00
 RHO, KG/CU M    2.9549-1 2.9095-1 2.8654-1 2.8226-1 2.7811-1 2.7408-1 2.7016-1 2.6636-1
 H, KJ/KG          313.30   385.18   457.11   529.10   601.14   673.22   745.34   817.50
 U, KJ/KG        -1006.53  -955.28  -903.97  -852.60  -801.19  -749.73  -698.23  -646.69
 G, KJ/KG        -18959.2 -19260.9 -19563.7 -19867.5 -20172.5 -20478.5 -20785.6 -21093.7
 S, KJ/(KG)(K)    60.2265  60.4494  60.6690  60.8855  61.0990  61.3094  61.5170  61.7217

 M, (1/n)           2.016    2.016    2.016    2.016    2.016    2.016    2.016    2.016
 (dLV/dLP)t      -0.99999 -0.99999 -0.99999 -0.99999 -0.99999 -0.99999 -0.99999 -0.99999
 (dLV/dLT)p        1.0000   1.0000   1.0000   1.0000   1.0000   1.0000   1.0000   1.0000
 Cp, KJ/(KG)(K)   14.3693  14.3813  14.3923  14.4026  14.4120  14.4207  14.4286  14.4360
 GAMMAs            1.4026   1.4021   1.4017   1.4013   1.4009   1.4006   1.4003   1.4000
 SON VEL,M/SEC     1360.6   1370.9   1381.2   1391.5   1401.6   1411.7   1421.8   1431.7

 TRANSPORT PROPERTIES (GASES ONLY)
   CONDUCTIVITY IN UNITS OF MILLIWATTS/(CM)(K)

 VISC,MILLIPOISE  0.00000  0.00000  0.00000  0.00002  0.00015  0.00127  0.00934  0.04409

  WITH EQUILIBRIUM REACTIONS

 Cp, KJ/(KG)(K)   14.3693  14.3813  14.3923  14.4026  14.4120  14.4207  14.4286  14.4360
 CONDUCTIVITY      0.0000   0.0000   0.0000   0.0001   0.0009   0.0079   0.0618   0.3949
 PRANDTL NUMBER    2.3320   2.3326   2.3331   2.3334   2.3317   2.3136   2.1806   1.6120

  WITH FROZEN REACTIONS

 Cp, KJ/(KG)(K)   14.3693  14.3813  14.3923  14.4026  14.4120  14.4207  14.4286  14.4360
 CONDUCTIVITY      0.0000   0.0000   0.0000   0.0001   0.0009   0.0079   0.0618   0.3949
 PRANDTL NUMBER    2.3320   2.3326   2.3331   2.3334   2.3317   2.3136   2.1806   1.6120

 MASS FRACTIONS

 *H2              1.00000  1.00000  1.00000  1.00000  1.00000  1.00000  1.00000  1.00000

  * THERMODYNAMIC PROPERTIES FITTED TO 20000.K

 NOTE. WEIGHT FRACTION OF FUEL IN TOTAL FUELS AND OF OXIDANT IN TOTAL OXIDANTS









               THERMODYNAMIC EQUILIBRIUM PROPERTIES AT ASSIGNED

                           TEMPERATURE AND PRESSURE

 CASE =                

             REACTANT                    WT FRACTION      ENERGY      TEMP
                                          (SEE NOTE)     KJ/KG-MOL      K  
 FUEL        H2                           1.0000000         0.000      0.000
 OXIDANT     H2                           1.0000000         0.000      0.000

 O/F=    1.00000  %FUEL= 50.000000  R,EQ.RATIO= 0.000000  PHI,EQ.RATIO=-1.000000

 THERMODYNAMIC PROPERTIES

 P, BAR            3.9000   3.9000   3.9000   4.4000   4.4000   4.4000   4.4000   4.4000
 T, K              360.00   365.00   370.00   300.00   305.00   310.00   315.00   320.00
 RHO, KG/CU M    2.6266-1 2.5906-1 2.5556-1 3.5560-1 3.4977-1 3.4413-1 3.3867-1 3.3338-1
 H, KJ/KG          889.70   961.93  1034.19   26.469   98.065   169.74   241.49   313.30
 U, KJ/KG         -595.11  -543.51  -491.87 -1210.88 -1159.90 -1108.85 -1057.72 -1006.53
 G, KJ/KG        -21402.8 -21712.9 -22024.0 -17614.6 -17909.2 -18204.9 -18501.9 -18800.0
 S, KJ/(KG)(K)    61.9236  62.1229  62.3195  58.8035  59.0401  59.2732  59.5028  59.7289

 M, (1/n)           2.016    2.016    2.016    2.016    2.016    2.016    2.016    2.016
 (dLV/dLP)t      -0.99999 -0.99999 -0.99999 -0.99999 -0.99999 -0.99999 -0.99999 -0.99999
 (dLV/dLT)p        1.0000   1.0000   1.0000   1.0000   1.0000   1.0000   1.0000   1.0000
 Cp, KJ/(KG)(K)   14.4427  14.4489  14.4545  14.3109  14.3272  14.3423  14.3563  14.3693
 GAMMAs            1.3997   1.3995   1.3993   1.4049   1.4043   1.4037   1.4031   1.4026
 SON VEL,M/SEC     1441.6   1451.5   1461.3   1318.5   1329.1   1339.7   1350.2   1360.6

 TRANSPORT PROPERTIES (GASES ONLY)
   CONDUCTIVITY IN UNITS OF MILLIWATTS/(CM)(K)

 VISC,MILLIPOISE  0.08617  0.09984  0.10296  0.00000  0.00000  0.00000  0.00000  0.00000

  WITH EQUILIBRIUM REACTIONS

 Cp, KJ/(KG)(K)   14.4427  14.4489  14.4545  14.3109  14.3272  14.3423  14.3563  14.3693
 CONDUCTIVITY      1.3317   1.9838   2.1495   0.0000   0.0000   0.0000   0.0000   0.0000
 PRANDTL NUMBER    0.9345   0.7272   0.6924   2.3304   2.3307   2.3311   2.3315   2.3320

  WITH FROZEN REACTIONS

 Cp, KJ/(KG)(K)   14.4427  14.4489  14.4545  14.3109  14.3272  14.3423  14.3563  14.3693
 CONDUCTIVITY      1.3317   1.9838   2.1495   0.0000   0.0000   0.0000   0.0000   0.0000
 PRANDTL NUMBER    0.9345   0.7272   0.6924   2.3304   2.3307   2.3311   2.3315   2.3320

 MASS FRACTIONS

 *H2              1.00000  1.00000  1.00000  1.00000  1.00000  1.00000  1.00000  1.00000

  * THERMODYNAMIC PROPERTIES FITTED TO 20000.K

 NOTE. WEIGHT FRACTION OF FUEL IN TOTAL FUELS AND OF OXIDANT IN TOTAL OXIDANTS









               THERMODYNAMIC EQUILIBRIUM PROPERTIES AT ASSIGNED

                           TEMPERATURE AND PRESSURE

 CASE =                

             REACTANT                    WT FRACTION      ENERGY      TEMP
                                          (SEE NOTE)     KJ/KG-MOL      K  
 FUEL        H2                           1.0000000         0.000      0.000
 OXIDANT     H2                           1.0000000         0.000      0.000

 O/F=    1.00000  %FUEL= 50.000000  R,EQ.RATIO= 0.000000  PHI,EQ.RATIO=-1.000000

 THERMODYNAMIC PROPERTIES

 P, BAR            4.4000   4.4000   4.4000   4.4000   4.4000   4.4000   4.4000   4.4000
 T, K              325.00   330.00   335.00   340.00   345.00   350.00   355.00   360.00
 RHO, KG/CU M    3.2825-1 3.2327-1 3.1845-1 3.1377-1 3.0922-1 3.0480-1 3.0051-1 2.9633-1
 H, KJ/KG          385.18   457.11   529.10   601.14   673.22   745.34   817.50   889.70
 U, KJ/KG         -955.28  -903.97  -852.60  -801.19  -749.73  -698.23  -646.69  -595.11
 G, KJ/KG        -19099.2 -19399.5 -19700.9 -20003.3 -20306.9 -20611.5 -20917.1 -21223.7
 S, KJ/(KG)(K)    59.9518  60.1715  60.3880  60.6014  60.8119  61.0194  61.2242  61.4261

 M, (1/n)           2.016    2.016    2.016    2.016    2.016    2.016    2.016    2.016
 (dLV/dLP)t      -0.99999 -0.99999 -0.99999 -0.99999 -0.99999 -0.99999 -0.99999 -0.99999
 (dLV/dLT)p        1.0000   1.0000   1.0000   1.0000   1.0000   1.0000   1.0000   1.0000
 Cp, KJ/(KG)(K)   14.3813  14.3923  14.4026  14.4120  14.4207  14.4286  14.4360  14.4427
 GAMMAs            1.4021   1.4017   1.4013   1.4009   1.4006   1.4003   1.4000   1.3997
 SON VEL,M/SEC     1370.9   1381.2   1391.5   1401.6   1411.7   1421.8   1431.7   1441.6

 TRANSPORT PROPERTIES (GASES ONLY)
   CONDUCTIVITY IN UNITS OF MILLIWATTS/(CM)(K)

 VISC,MILLIPOISE  0.00000  0.00000  0.00002  0.00015  0.00127  0.00934  0.04409  0.08617

  WITH EQUILIBRIUM REACTIONS

 Cp, KJ/(KG)(K)   14.3813  14.3923  14.4026  14.4120  14.4207  14.4286  14.4360  14.4427
 CONDUCTIVITY      0.0000   0.0000   0.0001   0.0009   0.0079   0.0618   0.3949   1.3317
 PRANDTL NUMBER    2.3326   2.3331   2.3334   2.3317   2.3136   2.1806   1.6120   0.9345

  WITH FROZEN REACTIONS

 Cp, KJ/(KG)(K)   14.3813  14.3923  14.4026  14.4120  14.4207  14.4286  14.4360  14.4427
 CONDUCTIVITY      0.0000   0.0000   0.0001   0.0009   0.0079   0.0618   0.3949   1.3317
 PRANDTL NUMBER    2.3326   2.3331   2.3334   2.3317   2.3136   2.1806   1.6120   0.9345

 MASS FRACTIONS

 *H2              1.00000  1.00000  1.00000  1.00000  1.00000  1.00000  1.00000  1.00000

  * THERMODYNAMIC PROPERTIES FITTED TO 20000.K

 NOTE. WEIGHT FRACTION OF FUEL IN TOTAL FUELS AND OF OXIDANT IN TOTAL OXIDANTS









               THERMODYNAMIC EQUILIBRIUM PROPERTIES AT ASSIGNED

                           TEMPERATURE AND PRESSURE

 CASE =                

             REACTANT                    WT FRACTION      ENERGY      TEMP
                                          (SEE NOTE)     KJ/KG-MOL      K  
 FUEL        H2                           1.0000000         0.000      0.000
 OXIDANT     H2                           1.0000000         0.000      0.000

 O/F=    1.00000  %FUEL= 50.000000  R,EQ.RATIO= 0.000000  PHI,EQ.RATIO=-1.000000

 THERMODYNAMIC PROPERTIES

 P, BAR            4.4000   4.4000   4.9000   4.9000   4.9000   4.9000   4.9000   4.9000
 T, K              365.00   370.00   300.00   305.00   310.00   315.00   320.00   325.00
 RHO, KG/CU M    2.9227-1 2.8832-1 3.9601-1 3.8952-1 3.8323-1 3.7715-1 3.7126-1 3.6555-1
 H, KJ/KG          961.93  1034.19   26.469   98.065   169.74   241.49   313.30   385.18
 U, KJ/KG         -543.51  -491.87 -1210.88 -1159.90 -1108.85 -1057.72 -1006.53  -955.28
 G, KJ/KG        -21531.3 -21839.9 -17481.4 -17773.8 -18067.3 -18362.0 -18657.9 -18954.9
 S, KJ/(KG)(K)    61.6254  61.8220  58.3596  58.5962  58.8292  59.0588  59.2850  59.5079

 M, (1/n)           2.016    2.016    2.016    2.016    2.016    2.016    2.016    2.016
 (dLV/dLP)t      -0.99999 -0.99999 -0.99999 -0.99999 -0.99999 -0.99999 -0.99999 -0.99999
 (dLV/dLT)p        1.0000   1.0000   1.0000   1.0000   1.0000   1.0000   1.0000   1.0000
 Cp, KJ/(KG)(K)   14.4489  14.4545  14.3109  14.3272  14.3423  14.3563  14.3693  14.3813
 GAMMAs            1.3995   1.3993   1.4049   1.4043   1.4037   1.4031   1.4026   1.4021
 SON VEL,M/SEC     1451.5   1461.3   1318.5   1329.1   1339.7   1350.2   1360.6   1370.9

 TRANSPORT PROPERTIES (GASES ONLY)
   CONDUCTIVITY IN UNITS OF MILLIWATTS/(CM)(K)

 VISC,MILLIPOISE  0.09984  0.10296  0.00000  0.00000  0.00000  0.00000  0.00000  0.00000

  WITH EQUILIBRIUM REACTIONS

 Cp, KJ/(KG)(K)   14.4489  14.4545  14.3109  14.3272  14.3423  14.3563  14.3693  14.3813
 CONDUCTIVITY      1.9838   2.1495   0.0000   0.0000   0.0000   0.0000   0.0000   0.0000
 PRANDTL NUMBER    0.7272   0.6924   2.3304   2.3307   2.3311   2.3315   2.3320   2.3326

  WITH FROZEN REACTIONS

 Cp, KJ/(KG)(K)   14.4489  14.4545  14.3109  14.3272  14.3423  14.3563  14.3693  14.3813
 CONDUCTIVITY      1.9838   2.1495   0.0000   0.0000   0.0000   0.0000   0.0000   0.0000
 PRANDTL NUMBER    0.7272   0.6924   2.3304   2.3307   2.3311   2.3315   2.3320   2.3326

 MASS FRACTIONS

 *H2              1.00000  1.00000  1.00000  1.00000  1.00000  1.00000  1.00000  1.00000

  * THERMODYNAMIC PROPERTIES FITTED TO 20000.K

 NOTE. WEIGHT FRACTION OF FUEL IN TOTAL FUELS AND OF OXIDANT IN TOTAL OXIDANTS









               THERMODYNAMIC EQUILIBRIUM PROPERTIES AT ASSIGNED

                           TEMPERATURE AND PRESSURE

 CASE =                

             REACTANT                    WT FRACTION      ENERGY      TEMP
                                          (SEE NOTE)     KJ/KG-MOL      K  
 FUEL        H2                           1.0000000         0.000      0.000
 OXIDANT     H2                           1.0000000         0.000      0.000

 O/F=    1.00000  %FUEL= 50.000000  R,EQ.RATIO= 0.000000  PHI,EQ.RATIO=-1.000000

 THERMODYNAMIC PROPERTIES

 P, BAR            4.9000   4.9000   4.9000   4.9000   4.9000   4.9000   4.9000   4.9000
 T, K              330.00   335.00   340.00   345.00   350.00   355.00   360.00   365.00
 RHO, KG/CU M    3.6001-1 3.5464-1 3.4942-1 3.4436-1 3.3944-1 3.3466-1 3.3001-1 3.2549-1
 H, KJ/KG          457.11   529.10   601.14   673.22   745.34   817.50   889.70   961.93
 U, KJ/KG         -903.97  -852.60  -801.19  -749.73  -698.23  -646.69  -595.11  -543.51
 G, KJ/KG        -19253.0 -19552.2 -19852.4 -20153.7 -20456.1 -20759.5 -21063.9 -21369.3
 S, KJ/(KG)(K)    59.7275  59.9441  60.1575  60.3680  60.5755  60.7802  60.9822  61.1814

 M, (1/n)           2.016    2.016    2.016    2.016    2.016    2.016    2.016    2.016
 (dLV/dLP)t      -0.99999 -0.99999 -0.99999 -0.99999 -0.99999 -0.99999 -0.99999 -0.99999
 (dLV/dLT)p        1.0000   1.0000   1.0000   1.0000   1.0000   1.0000   1.0000   1.0000
 Cp, KJ/(KG)(K)   14.3923  14.4026  14.4120  14.4207  14.4286  14.4360  14.4427  14.4489
 GAMMAs            1.4017   1.4013   1.4009   1.4006   1.4003   1.4000   1.3997   1.3995
 SON VEL,M/SEC     1381.2   1391.5   1401.6   1411.7   1421.8   1431.7   1441.6   1451.5

 TRANSPORT PROPERTIES (GASES ONLY)
   CONDUCTIVITY IN UNITS OF MILLIWATTS/(CM)(K)

 VISC,MILLIPOISE  0.00000  0.00002  0.00015  0.00127  0.00934  0.04409  0.08617  0.09984

  WITH EQUILIBRIUM REACTIONS

 Cp, KJ/(KG)(K)   14.3923  14.4026  14.4120  14.4207  14.4286  14.4360  14.4427  14.4489
 CONDUCTIVITY      0.0000   0.0001   0.0009   0.0079   0.0618   0.3949   1.3317   1.9838
 PRANDTL NUMBER    2.3331   2.3334   2.3317   2.3136   2.1806   1.6120   0.9345   0.7272

  WITH FROZEN REACTIONS

 Cp, KJ/(KG)(K)   14.3923  14.4026  14.4120  14.4207  14.4286  14.4360  14.4427  14.4489
 CONDUCTIVITY      0.0000   0.0001   0.0009   0.0079   0.0618   0.3949   1.3317   1.9838
 PRANDTL NUMBER    2.3331   2.3334   2.3317   2.3136   2.1806   1.6120   0.9345   0.7272

 MASS FRACTIONS

 *H2              1.00000  1.00000  1.00000  1.00000  1.00000  1.00000  1.00000  1.00000

  * THERMODYNAMIC PROPERTIES FITTED TO 20000.K

 NOTE. WEIGHT FRACTION OF FUEL IN TOTAL FUELS AND OF OXIDANT IN TOTAL OXIDANTS









               THERMODYNAMIC EQUILIBRIUM PROPERTIES AT ASSIGNED

                           TEMPERATURE AND PRESSURE

 CASE =                

             REACTANT                    WT FRACTION      ENERGY      TEMP
                                          (SEE NOTE)     KJ/KG-MOL      K  
 FUEL        H2                           1.0000000         0.000      0.000
 OXIDANT     H2                           1.0000000         0.000      0.000

 O/F=    1.00000  %FUEL= 50.000000  R,EQ.RATIO= 0.000000  PHI,EQ.RATIO=-1.000000

 THERMODYNAMIC PROPERTIES

 P, BAR            4.9000   5.4000   5.4000   5.4000   5.4000   5.4000   5.4000   5.4000
 T, K              370.00   300.00   305.00   310.00   315.00   320.00   325.00   330.00
 RHO, KG/CU M    3.2109-1 4.3642-1 4.2926-1 4.2234-1 4.1564-1 4.0914-1 4.0285-1 3.9674-1
 H, KJ/KG         1034.19   26.469   98.065   169.74   241.49   313.30   385.18   457.11
 U, KJ/KG         -491.87 -1210.88 -1159.90 -1108.85 -1057.72 -1006.53  -955.28  -903.97
 G, KJ/KG        -21675.7 -17361.2 -17651.5 -17943.1 -18235.8 -18529.7 -18824.6 -19120.7
 S, KJ/(KG)(K)    61.3781  57.9588  58.1954  58.4285  58.6581  58.8843  59.1071  59.3268

 M, (1/n)           2.016    2.016    2.016    2.016    2.016    2.016    2.016    2.016
 (dLV/dLP)t      -0.99999 -0.99999 -0.99999 -0.99999 -0.99999 -0.99999 -0.99999 -0.99999
 (dLV/dLT)p        1.0000   1.0000   1.0000   1.0000   1.0000   1.0000   1.0000   1.0000
 Cp, KJ/(KG)(K)   14.4545  14.3109  14.3272  14.3423  14.3563  14.3693  14.3813  14.3923
 GAMMAs            1.3993   1.4049   1.4043   1.4037   1.4031   1.4026   1.4021   1.4017
 SON VEL,M/SEC     1461.3   1318.5   1329.1   1339.7   1350.2   1360.6   1370.9   1381.2

 TRANSPORT PROPERTIES (GASES ONLY)
   CONDUCTIVITY IN UNITS OF MILLIWATTS/(CM)(K)

 VISC,MILLIPOISE  0.10296  0.00000  0.00000  0.00000  0.00000  0.00000  0.00000  0.00000

  WITH EQUILIBRIUM REACTIONS

 Cp, KJ/(KG)(K)   14.4545  14.3109  14.3272  14.3423  14.3563  14.3693  14.3813  14.3923
 CONDUCTIVITY      2.1495   0.0000   0.0000   0.0000   0.0000   0.0000   0.0000   0.0000
 PRANDTL NUMBER    0.6924   2.3304   2.3307   2.3311   2.3315   2.3320   2.3326   2.3331

  WITH FROZEN REACTIONS

 Cp, KJ/(KG)(K)   14.4545  14.3109  14.3272  14.3423  14.3563  14.3693  14.3813  14.3923
 CONDUCTIVITY      2.1495   0.0000   0.0000   0.0000   0.0000   0.0000   0.0000   0.0000
 PRANDTL NUMBER    0.6924   2.3304   2.3307   2.3311   2.3315   2.3320   2.3326   2.3331

 MASS FRACTIONS

 *H2              1.00000  1.00000  1.00000  1.00000  1.00000  1.00000  1.00000  1.00000

  * THERMODYNAMIC PROPERTIES FITTED TO 20000.K

 NOTE. WEIGHT FRACTION OF FUEL IN TOTAL FUELS AND OF OXIDANT IN TOTAL OXIDANTS









               THERMODYNAMIC EQUILIBRIUM PROPERTIES AT ASSIGNED

                           TEMPERATURE AND PRESSURE

 CASE =                

             REACTANT                    WT FRACTION      ENERGY      TEMP
                                          (SEE NOTE)     KJ/KG-MOL      K  
 FUEL        H2                           1.0000000         0.000      0.000
 OXIDANT     H2                           1.0000000         0.000      0.000

 O/F=    1.00000  %FUEL= 50.000000  R,EQ.RATIO= 0.000000  PHI,EQ.RATIO=-1.000000

 THERMODYNAMIC PROPERTIES

 P, BAR            5.4000   5.4000   5.4000   5.4000   5.4000   5.4000   5.4000   5.4000
 T, K              335.00   340.00   345.00   350.00   355.00   360.00   365.00   370.00
 RHO, KG/CU M    3.9082-1 3.8508-1 3.7949-1 3.7407-1 3.6880-1 3.6368-1 3.5870-1 3.5385-1
 H, KJ/KG          529.10   601.14   673.22   745.34   817.50   889.70   961.93  1034.19
 U, KJ/KG         -852.60  -801.19  -749.73  -698.23  -646.69  -595.11  -543.51  -491.87
 G, KJ/KG        -19417.9 -19716.2 -20015.5 -20315.8 -20617.2 -20919.6 -21223.0 -21527.4
 S, KJ/(KG)(K)    59.5433  59.7568  59.9672  60.1748  60.3795  60.5814  60.7807  60.9773

 M, (1/n)           2.016    2.016    2.016    2.016    2.016    2.016    2.016    2.016
 (dLV/dLP)t      -0.99999 -0.99999 -0.99999 -0.99999 -0.99999 -0.99999 -0.99999 -0.99999
 (dLV/dLT)p        1.0000   1.0000   1.0000   1.0000   1.0000   1.0000   1.0000   1.0000
 Cp, KJ/(KG)(K)   14.4026  14.4120  14.4207  14.4286  14.4360  14.4427  14.4489  14.4545
 GAMMAs            1.4013   1.4009   1.4006   1.4003   1.4000   1.3997   1.3995   1.3993
 SON VEL,M/SEC     1391.5   1401.6   1411.7   1421.8   1431.7   1441.6   1451.5   1461.3

 TRANSPORT PROPERTIES (GASES ONLY)
   CONDUCTIVITY IN UNITS OF MILLIWATTS/(CM)(K)

 VISC,MILLIPOISE  0.00002  0.00015  0.00127  0.00934  0.04409  0.08617  0.09984  0.10296

  WITH EQUILIBRIUM REACTIONS

 Cp, KJ/(KG)(K)   14.4026  14.4120  14.4207  14.4286  14.4360  14.4427  14.4489  14.4545
 CONDUCTIVITY      0.0001   0.0009   0.0079   0.0618   0.3949   1.3317   1.9838   2.1495
 PRANDTL NUMBER    2.3334   2.3317   2.3136   2.1806   1.6120   0.9345   0.7272   0.6924

  WITH FROZEN REACTIONS

 Cp, KJ/(KG)(K)   14.4026  14.4120  14.4207  14.4286  14.4360  14.4427  14.4489  14.4545
 CONDUCTIVITY      0.0001   0.0009   0.0079   0.0618   0.3949   1.3317   1.9838   2.1495
 PRANDTL NUMBER    2.3334   2.3317   2.3136   2.1806   1.6120   0.9345   0.7272   0.6924

 MASS FRACTIONS

 *H2              1.00000  1.00000  1.00000  1.00000  1.00000  1.00000  1.00000  1.00000

  * THERMODYNAMIC PROPERTIES FITTED TO 20000.K

 NOTE. WEIGHT FRACTION OF FUEL IN TOTAL FUELS AND OF OXIDANT IN TOTAL OXIDANTS









               THERMODYNAMIC EQUILIBRIUM PROPERTIES AT ASSIGNED

                           TEMPERATURE AND PRESSURE

 CASE =                

             REACTANT                    WT FRACTION      ENERGY      TEMP
                                          (SEE NOTE)     KJ/KG-MOL      K  
 FUEL        H2                           1.0000000         0.000      0.000
 OXIDANT     H2                           1.0000000         0.000      0.000

 O/F=    1.00000  %FUEL= 50.000000  R,EQ.RATIO= 0.000000  PHI,EQ.RATIO=-1.000000

 THERMODYNAMIC PROPERTIES

 P, BAR            6.0000   6.0000   6.0000   6.0000   6.0000   6.0000   6.0000   6.0000
 T, K              300.00   305.00   310.00   315.00   320.00   325.00   330.00   335.00
 RHO, KG/CU M    4.8491-1 4.7696-1 4.6927-1 4.6182-1 4.5460-1 4.4761-1 4.4083-1 4.3425-1
 H, KJ/KG          26.469   98.065   169.74   241.49   313.30   385.18   457.11   529.10
 U, KJ/KG        -1210.88 -1159.90 -1108.85 -1057.72 -1006.53  -955.28  -903.97  -852.60
 G, KJ/KG        -17230.8 -17519.0 -17808.4 -18098.9 -18390.6 -18683.4 -18977.3 -19272.3
 S, KJ/(KG)(K)    57.5242  57.7609  57.9939  58.2235  58.4497  58.6726  58.8922  59.1087

 M, (1/n)           2.016    2.016    2.016    2.016    2.016    2.016    2.016    2.016
 (dLV/dLP)t      -0.99999 -0.99999 -0.99999 -0.99999 -0.99999 -0.99999 -0.99999 -0.99999
 (dLV/dLT)p        1.0000   1.0000   1.0000   1.0000   1.0000   1.0000   1.0000   1.0000
 Cp, KJ/(KG)(K)   14.3109  14.3272  14.3423  14.3563  14.3693  14.3813  14.3923  14.4026
 GAMMAs            1.4049   1.4043   1.4037   1.4031   1.4026   1.4021   1.4017   1.4013
 SON VEL,M/SEC     1318.5   1329.1   1339.7   1350.2   1360.6   1370.9   1381.2   1391.5

 TRANSPORT PROPERTIES (GASES ONLY)
   CONDUCTIVITY IN UNITS OF MILLIWATTS/(CM)(K)

 VISC,MILLIPOISE  0.00000  0.00000  0.00000  0.00000  0.00000  0.00000  0.00000  0.00002

  WITH EQUILIBRIUM REACTIONS

 Cp, KJ/(KG)(K)   14.3109  14.3272  14.3423  14.3563  14.3693  14.3813  14.3923  14.4026
 CONDUCTIVITY      0.0000   0.0000   0.0000   0.0000   0.0000   0.0000   0.0000   0.0001
 PRANDTL NUMBER    2.3304   2.3307   2.3311   2.3315   2.3320   2.3326   2.3331   2.3334

  WITH FROZEN REACTIONS

 Cp, KJ/(KG)(K)   14.3109  14.3272  14.3423  14.3563  14.3693  14.3813  14.3923  14.4026
 CONDUCTIVITY      0.0000   0.0000   0.0000   0.0000   0.0000   0.0000   0.0000   0.0001
 PRANDTL NUMBER    2.3304   2.3307   2.3311   2.3315   2.3320   2.3326   2.3331   2.3334

 MASS FRACTIONS

 *H2              1.00000  1.00000  1.00000  1.00000  1.00000  1.00000  1.00000  1.00000

  * THERMODYNAMIC PROPERTIES FITTED TO 20000.K

 NOTE. WEIGHT FRACTION OF FUEL IN TOTAL FUELS AND OF OXIDANT IN TOTAL OXIDANTS









               THERMODYNAMIC EQUILIBRIUM PROPERTIES AT ASSIGNED

                           TEMPERATURE AND PRESSURE

 CASE =                

             REACTANT                    WT FRACTION      ENERGY      TEMP
                                          (SEE NOTE)     KJ/KG-MOL      K  
 FUEL        H2                           1.0000000         0.000      0.000
 OXIDANT     H2                           1.0000000         0.000      0.000

 O/F=    1.00000  %FUEL= 50.000000  R,EQ.RATIO= 0.000000  PHI,EQ.RATIO=-1.000000

 THERMODYNAMIC PROPERTIES

 P, BAR            6.0000   6.0000   6.0000   6.0000   6.0000   6.0000   6.0000   6.7000
 T, K              340.00   345.00   350.00   355.00   360.00   365.00   370.00   300.00
 RHO, KG/CU M    4.2786-1 4.2166-1 4.1564-1 4.0978-1 4.0409-1 3.9856-1 3.9317-1 5.4148-1
 H, KJ/KG          601.14   673.22   745.34   817.50   889.70   961.93  1034.19   26.469
 U, KJ/KG         -801.19  -749.73  -698.23  -646.69  -595.11  -543.51  -491.87 -1210.88
 G, KJ/KG        -19568.4 -19865.5 -20163.7 -20462.9 -20763.2 -21064.4 -21366.6 -17094.3
 S, KJ/(KG)(K)    59.3222  59.5327  59.7402  59.9449  60.1469  60.3461  60.5428  57.0691

 M, (1/n)           2.016    2.016    2.016    2.016    2.016    2.016    2.016    2.016
 (dLV/dLP)t      -0.99999 -0.99999 -0.99999 -0.99999 -0.99999 -0.99999 -0.99999 -0.99999
 (dLV/dLT)p        1.0000   1.0000   1.0000   1.0000   1.0000   1.0000   1.0000   1.0000
 Cp, KJ/(KG)(K)   14.4120  14.4207  14.4286  14.4360  14.4427  14.4489  14.4545  14.3109
 GAMMAs            1.4009   1.4006   1.4003   1.4000   1.3997   1.3995   1.3993   1.4049
 SON VEL,M/SEC     1401.6   1411.7   1421.8   1431.7   1441.6   1451.5   1461.3   1318.5

 TRANSPORT PROPERTIES (GASES ONLY)
   CONDUCTIVITY IN UNITS OF MILLIWATTS/(CM)(K)

 VISC,MILLIPOISE  0.00015  0.00127  0.00934  0.04409  0.08617  0.09984  0.10296  0.00000

  WITH EQUILIBRIUM REACTIONS

 Cp, KJ/(KG)(K)   14.4120  14.4207  14.4286  14.4360  14.4427  14.4489  14.4545  14.3109
 CONDUCTIVITY      0.0009   0.0079   0.0618   0.3949   1.3317   1.9838   2.1495   0.0000
 PRANDTL NUMBER    2.3317   2.3136   2.1806   1.6120   0.9345   0.7272   0.6924   2.3304

  WITH FROZEN REACTIONS

 Cp, KJ/(KG)(K)   14.4120  14.4207  14.4286  14.4360  14.4427  14.4489  14.4545  14.3109
 CONDUCTIVITY      0.0009   0.0079   0.0618   0.3949   1.3317   1.9838   2.1495   0.0000
 PRANDTL NUMBER    2.3317   2.3136   2.1806   1.6120   0.9345   0.7272   0.6924   2.3304

 MASS FRACTIONS

 *H2              1.00000  1.00000  1.00000  1.00000  1.00000  1.00000  1.00000  1.00000

  * THERMODYNAMIC PROPERTIES FITTED TO 20000.K

 NOTE. WEIGHT FRACTION OF FUEL IN TOTAL FUELS AND OF OXIDANT IN TOTAL OXIDANTS









               THERMODYNAMIC EQUILIBRIUM PROPERTIES AT ASSIGNED

                           TEMPERATURE AND PRESSURE

 CASE =                

             REACTANT                    WT FRACTION      ENERGY      TEMP
                                          (SEE NOTE)     KJ/KG-MOL      K  
 FUEL        H2                           1.0000000         0.000      0.000
 OXIDANT     H2                           1.0000000         0.000      0.000

 O/F=    1.00000  %FUEL= 50.000000  R,EQ.RATIO= 0.000000  PHI,EQ.RATIO=-1.000000

 THERMODYNAMIC PROPERTIES

 P, BAR            6.7000   6.7000   6.7000   6.7000   6.7000   6.7000   6.7000   6.7000
 T, K              305.00   310.00   315.00   320.00   325.00   330.00   335.00   340.00
 RHO, KG/CU M    5.3261-1 5.2402-1 5.1570-1 5.0764-1 4.9983-1 4.9226-1 4.8491-1 4.7778-1
 H, KJ/KG          98.065   169.74   241.49   313.30   385.18   457.11   529.10   601.14
 U, KJ/KG        -1159.90 -1108.85 -1057.72 -1006.53  -955.28  -903.97  -852.60  -801.19
 G, KJ/KG        -17380.2 -17667.3 -17955.6 -18245.0 -18535.5 -18827.1 -19119.9 -19413.7
 S, KJ/(KG)(K)    57.3057  57.5388  57.7684  57.9946  58.2175  58.4371  58.6536  58.8671

 M, (1/n)           2.016    2.016    2.016    2.016    2.016    2.016    2.016    2.016
 (dLV/dLP)t      -0.99999 -0.99999 -0.99999 -0.99999 -0.99999 -0.99999 -0.99999 -0.99999
 (dLV/dLT)p        1.0000   1.0000   1.0000   1.0000   1.0000   1.0000   1.0000   1.0000
 Cp, KJ/(KG)(K)   14.3272  14.3423  14.3563  14.3693  14.3813  14.3923  14.4026  14.4120
 GAMMAs            1.4043   1.4037   1.4031   1.4026   1.4021   1.4017   1.4013   1.4009
 SON VEL,M/SEC     1329.1   1339.7   1350.2   1360.6   1370.9   1381.2   1391.5   1401.6

 TRANSPORT PROPERTIES (GASES ONLY)
   CONDUCTIVITY IN UNITS OF MILLIWATTS/(CM)(K)

 VISC,MILLIPOISE  0.00000  0.00000  0.00000  0.00000  0.00000  0.00000  0.00002  0.00015

  WITH EQUILIBRIUM REACTIONS

 Cp, KJ/(KG)(K)   14.3272  14.3423  14.3563  14.3693  14.3813  14.3923  14.4026  14.4120
 CONDUCTIVITY      0.0000   0.0000   0.0000   0.0000   0.0000   0.0000   0.0001   0.0009
 PRANDTL NUMBER    2.3307   2.3311   2.3315   2.3320   2.3326   2.3331   2.3334   2.3317

  WITH FROZEN REACTIONS

 Cp, KJ/(KG)(K)   14.3272  14.3423  14.3563  14.3693  14.3813  14.3923  14.4026  14.4120
 CONDUCTIVITY      0.0000   0.0000   0.0000   0.0000   0.0000   0.0000   0.0001   0.0009
 PRANDTL NUMBER    2.3307   2.3311   2.3315   2.3320   2.3326   2.3331   2.3334   2.3317

 MASS FRACTIONS

 *H2              1.00000  1.00000  1.00000  1.00000  1.00000  1.00000  1.00000  1.00000

  * THERMODYNAMIC PROPERTIES FITTED TO 20000.K

 NOTE. WEIGHT FRACTION OF FUEL IN TOTAL FUELS AND OF OXIDANT IN TOTAL OXIDANTS









               THERMODYNAMIC EQUILIBRIUM PROPERTIES AT ASSIGNED

                           TEMPERATURE AND PRESSURE

 CASE =                

             REACTANT                    WT FRACTION      ENERGY      TEMP
                                          (SEE NOTE)     KJ/KG-MOL      K  
 FUEL        H2                           1.0000000         0.000      0.000
 OXIDANT     H2                           1.0000000         0.000      0.000

 O/F=    1.00000  %FUEL= 50.000000  R,EQ.RATIO= 0.000000  PHI,EQ.RATIO=-1.000000

 THERMODYNAMIC PROPERTIES

 P, BAR            6.7000   6.7000   6.7000   6.7000   6.7000   6.7000   7.4000   7.4000
 T, K              345.00   350.00   355.00   360.00   365.00   370.00   300.00   305.00
 RHO, KG/CU M    4.7085-1 4.6413-1 4.5759-1 4.5124-1 4.4505-1 4.3904-1 5.9805-1 5.8825-1
 H, KJ/KG          673.22   745.34   817.50   889.70   961.93  1034.19   26.469   98.065
 U, KJ/KG         -749.73  -698.23  -646.69  -595.11  -543.51  -491.87 -1210.88 -1159.90
 G, KJ/KG        -19708.5 -20004.4 -20301.4 -20599.3 -20898.3 -21198.2 -16971.3 -17255.2
 S, KJ/(KG)(K)    59.0775  59.2851  59.4898  59.6917  59.8910  60.0876  56.6592  56.8959

 M, (1/n)           2.016    2.016    2.016    2.016    2.016    2.016    2.016    2.016
 (dLV/dLP)t      -0.99999 -0.99999 -0.99999 -0.99999 -0.99999 -0.99999 -0.99999 -0.99999
 (dLV/dLT)p        1.0000   1.0000   1.0000   1.0000   1.0000   1.0000   1.0000   1.0000
 Cp, KJ/(KG)(K)   14.4207  14.4286  14.4360  14.4427  14.4489  14.4545  14.3109  14.3272
 GAMMAs            1.4006   1.4003   1.4000   1.3997   1.3995   1.3993   1.4049   1.4043
 SON VEL,M/SEC     1411.7   1421.8   1431.7   1441.6   1451.5   1461.3   1318.5   1329.1

 TRANSPORT PROPERTIES (GASES ONLY)
   CONDUCTIVITY IN UNITS OF MILLIWATTS/(CM)(K)

 VISC,MILLIPOISE  0.00127  0.00934  0.04409  0.08617  0.09984  0.10296  0.00000  0.00000

  WITH EQUILIBRIUM REACTIONS

 Cp, KJ/(KG)(K)   14.4207  14.4286  14.4360  14.4427  14.4489  14.4545  14.3109  14.3272
 CONDUCTIVITY      0.0079   0.0618   0.3949   1.3317   1.9838   2.1495   0.0000   0.0000
 PRANDTL NUMBER    2.3136   2.1806   1.6120   0.9345   0.7272   0.6924   2.3304   2.3307

  WITH FROZEN REACTIONS

 Cp, KJ/(KG)(K)   14.4207  14.4286  14.4360  14.4427  14.4489  14.4545  14.3109  14.3272
 CONDUCTIVITY      0.0079   0.0618   0.3949   1.3317   1.9838   2.1495   0.0000   0.0000
 PRANDTL NUMBER    2.3136   2.1806   1.6120   0.9345   0.7272   0.6924   2.3304   2.3307

 MASS FRACTIONS

 *H2              1.00000  1.00000  1.00000  1.00000  1.00000  1.00000  1.00000  1.00000

  * THERMODYNAMIC PROPERTIES FITTED TO 20000.K

 NOTE. WEIGHT FRACTION OF FUEL IN TOTAL FUELS AND OF OXIDANT IN TOTAL OXIDANTS









               THERMODYNAMIC EQUILIBRIUM PROPERTIES AT ASSIGNED

                           TEMPERATURE AND PRESSURE

 CASE =                

             REACTANT                    WT FRACTION      ENERGY      TEMP
                                          (SEE NOTE)     KJ/KG-MOL      K  
 FUEL        H2                           1.0000000         0.000      0.000
 OXIDANT     H2                           1.0000000         0.000      0.000

 O/F=    1.00000  %FUEL= 50.000000  R,EQ.RATIO= 0.000000  PHI,EQ.RATIO=-1.000000

 THERMODYNAMIC PROPERTIES

 P, BAR            7.4000   7.4000   7.4000   7.4000   7.4000   7.4000   7.4000   7.4000
 T, K              310.00   315.00   320.00   325.00   330.00   335.00   340.00   345.00
 RHO, KG/CU M    5.7876-1 5.6958-1 5.6068-1 5.5205-1 5.4369-1 5.3557-1 5.2770-1 5.2005-1
 H, KJ/KG          169.74   241.49   313.30   385.18   457.11   529.10   601.14   673.22
 U, KJ/KG        -1108.85 -1057.72 -1006.53  -955.28  -903.97  -852.60  -801.19  -749.73
 G, KJ/KG        -17540.2 -17826.5 -18113.8 -18402.3 -18691.9 -18982.6 -19274.3 -19567.1
 S, KJ/(KG)(K)    57.1289  57.3585  57.5847  57.8076  58.0272  58.2438  58.4572  58.6677

 M, (1/n)           2.016    2.016    2.016    2.016    2.016    2.016    2.016    2.016
 (dLV/dLP)t      -0.99999 -0.99999 -0.99999 -0.99999 -0.99999 -0.99999 -0.99999 -0.99999
 (dLV/dLT)p        1.0000   1.0000   1.0000   1.0000   1.0000   1.0000   1.0000   1.0000
 Cp, KJ/(KG)(K)   14.3423  14.3563  14.3693  14.3813  14.3923  14.4026  14.4120  14.4207
 GAMMAs            1.4037   1.4031   1.4026   1.4021   1.4017   1.4013   1.4009   1.4006
 SON VEL,M/SEC     1339.7   1350.2   1360.6   1370.9   1381.2   1391.5   1401.6   1411.7

 TRANSPORT PROPERTIES (GASES ONLY)
   CONDUCTIVITY IN UNITS OF MILLIWATTS/(CM)(K)

 VISC,MILLIPOISE  0.00000  0.00000  0.00000  0.00000  0.00000  0.00002  0.00015  0.00127

  WITH EQUILIBRIUM REACTIONS

 Cp, KJ/(KG)(K)   14.3423  14.3563  14.3693  14.3813  14.3923  14.4026  14.4120  14.4207
 CONDUCTIVITY      0.0000   0.0000   0.0000   0.0000   0.0000   0.0001   0.0009   0.0079
 PRANDTL NUMBER    2.3311   2.3315   2.3320   2.3326   2.3331   2.3334   2.3317   2.3136

  WITH FROZEN REACTIONS

 Cp, KJ/(KG)(K)   14.3423  14.3563  14.3693  14.3813  14.3923  14.4026  14.4120  14.4207
 CONDUCTIVITY      0.0000   0.0000   0.0000   0.0000   0.0000   0.0001   0.0009   0.0079
 PRANDTL NUMBER    2.3311   2.3315   2.3320   2.3326   2.3331   2.3334   2.3317   2.3136

 MASS FRACTIONS

 *H2              1.00000  1.00000  1.00000  1.00000  1.00000  1.00000  1.00000  1.00000

  * THERMODYNAMIC PROPERTIES FITTED TO 20000.K

 NOTE. WEIGHT FRACTION OF FUEL IN TOTAL FUELS AND OF OXIDANT IN TOTAL OXIDANTS









               THERMODYNAMIC EQUILIBRIUM PROPERTIES AT ASSIGNED

                           TEMPERATURE AND PRESSURE

 CASE =                

             REACTANT                    WT FRACTION      ENERGY      TEMP
                                          (SEE NOTE)     KJ/KG-MOL      K  
 FUEL        H2                           1.0000000         0.000      0.000
 OXIDANT     H2                           1.0000000         0.000      0.000

 O/F=    1.00000  %FUEL= 50.000000  R,EQ.RATIO= 0.000000  PHI,EQ.RATIO=-1.000000

 THERMODYNAMIC PROPERTIES

 P, BAR            7.4000   7.4000   7.4000   7.4000   7.4000   8.2500   8.2500   8.2500
 T, K              350.00   355.00   360.00   365.00   370.00   300.00   305.00   310.00
 RHO, KG/CU M    5.1262-1 5.0540-1 4.9838-1 4.9155-1 4.8491-1 6.6675-1 6.5582-1 6.4524-1
 H, KJ/KG          745.34   817.50   889.70   961.93  1034.19   26.469   98.065   169.74
 U, KJ/KG         -698.23  -646.69  -595.11  -543.51  -491.87 -1210.88 -1159.90 -1108.85
 G, KJ/KG        -19861.0 -20155.9 -20451.8 -20748.7 -21046.6 -16836.8 -17118.4 -17401.2
 S, KJ/(KG)(K)    58.8752  59.0799  59.2819  59.4811  59.6778  56.2108  56.4474  56.6805

 M, (1/n)           2.016    2.016    2.016    2.016    2.016    2.016    2.016    2.016
 (dLV/dLP)t      -0.99999 -0.99999 -0.99999 -0.99999 -0.99999 -0.99999 -0.99999 -0.99999
 (dLV/dLT)p        1.0000   1.0000   1.0000   1.0000   1.0000   1.0000   1.0000   1.0000
 Cp, KJ/(KG)(K)   14.4286  14.4360  14.4427  14.4489  14.4545  14.3109  14.3272  14.3423
 GAMMAs            1.4003   1.4000   1.3997   1.3995   1.3993   1.4049   1.4043   1.4037
 SON VEL,M/SEC     1421.8   1431.7   1441.6   1451.5   1461.3   1318.5   1329.1   1339.7

 TRANSPORT PROPERTIES (GASES ONLY)
   CONDUCTIVITY IN UNITS OF MILLIWATTS/(CM)(K)

 VISC,MILLIPOISE  0.00934  0.04409  0.08617  0.09984  0.10296  0.00000  0.00000  0.00000

  WITH EQUILIBRIUM REACTIONS

 Cp, KJ/(KG)(K)   14.4286  14.4360  14.4427  14.4489  14.4545  14.3109  14.3272  14.3423
 CONDUCTIVITY      0.0618   0.3949   1.3317   1.9838   2.1495   0.0000   0.0000   0.0000
 PRANDTL NUMBER    2.1806   1.6120   0.9345   0.7272   0.6924   2.3304   2.3307   2.3311

  WITH FROZEN REACTIONS

 Cp, KJ/(KG)(K)   14.4286  14.4360  14.4427  14.4489  14.4545  14.3109  14.3272  14.3423
 CONDUCTIVITY      0.0618   0.3949   1.3317   1.9838   2.1495   0.0000   0.0000   0.0000
 PRANDTL NUMBER    2.1806   1.6120   0.9345   0.7272   0.6924   2.3304   2.3307   2.3311

 MASS FRACTIONS

 *H2              1.00000  1.00000  1.00000  1.00000  1.00000  1.00000  1.00000  1.00000

  * THERMODYNAMIC PROPERTIES FITTED TO 20000.K

 NOTE. WEIGHT FRACTION OF FUEL IN TOTAL FUELS AND OF OXIDANT IN TOTAL OXIDANTS









               THERMODYNAMIC EQUILIBRIUM PROPERTIES AT ASSIGNED

                           TEMPERATURE AND PRESSURE

 CASE =                

             REACTANT                    WT FRACTION      ENERGY      TEMP
                                          (SEE NOTE)     KJ/KG-MOL      K  
 FUEL        H2                           1.0000000         0.000      0.000
 OXIDANT     H2                           1.0000000         0.000      0.000

 O/F=    1.00000  %FUEL= 50.000000  R,EQ.RATIO= 0.000000  PHI,EQ.RATIO=-1.000000

 THERMODYNAMIC PROPERTIES

 P, BAR            8.2500   8.2500   8.2500   8.2500   8.2500   8.2500   8.2500   8.2500
 T, K              315.00   320.00   325.00   330.00   335.00   340.00   345.00   350.00
 RHO, KG/CU M    6.3500-1 6.2508-1 6.1546-1 6.0614-1 5.9709-1 5.8831-1 5.7978-1 5.7150-1
 H, KJ/KG          241.49   313.30   385.18   457.11   529.10   601.14   673.22   745.34
 U, KJ/KG        -1057.72 -1006.53  -955.28  -903.97  -852.60  -801.19  -749.73  -698.23
 G, KJ/KG        -17685.2 -17970.3 -18256.5 -18543.9 -18832.3 -19121.8 -19412.4 -19704.0
 S, KJ/(KG)(K)    56.9101  57.1362  57.3591  57.5788  57.7953  58.0087  58.2192  58.4267

 M, (1/n)           2.016    2.016    2.016    2.016    2.016    2.016    2.016    2.016
 (dLV/dLP)t      -0.99999 -0.99999 -0.99999 -0.99999 -0.99999 -0.99999 -0.99999 -0.99999
 (dLV/dLT)p        1.0000   1.0000   1.0000   1.0000   1.0000   1.0000   1.0000   1.0000
 Cp, KJ/(KG)(K)   14.3563  14.3693  14.3813  14.3923  14.4026  14.4120  14.4207  14.4286
 GAMMAs            1.4031   1.4026   1.4021   1.4017   1.4013   1.4009   1.4006   1.4003
 SON VEL,M/SEC     1350.2   1360.6   1370.9   1381.2   1391.5   1401.6   1411.7   1421.8

 TRANSPORT PROPERTIES (GASES ONLY)
   CONDUCTIVITY IN UNITS OF MILLIWATTS/(CM)(K)

 VISC,MILLIPOISE  0.00000  0.00000  0.00000  0.00000  0.00002  0.00015  0.00127  0.00934

  WITH EQUILIBRIUM REACTIONS

 Cp, KJ/(KG)(K)   14.3563  14.3693  14.3813  14.3923  14.4026  14.4120  14.4207  14.4286
 CONDUCTIVITY      0.0000   0.0000   0.0000   0.0000   0.0001   0.0009   0.0079   0.0618
 PRANDTL NUMBER    2.3315   2.3320   2.3326   2.3331   2.3334   2.3317   2.3136   2.1806

  WITH FROZEN REACTIONS

 Cp, KJ/(KG)(K)   14.3563  14.3693  14.3813  14.3923  14.4026  14.4120  14.4207  14.4286
 CONDUCTIVITY      0.0000   0.0000   0.0000   0.0000   0.0001   0.0009   0.0079   0.0618
 PRANDTL NUMBER    2.3315   2.3320   2.3326   2.3331   2.3334   2.3317   2.3136   2.1806

 MASS FRACTIONS

 *H2              1.00000  1.00000  1.00000  1.00000  1.00000  1.00000  1.00000  1.00000

  * THERMODYNAMIC PROPERTIES FITTED TO 20000.K

 NOTE. WEIGHT FRACTION OF FUEL IN TOTAL FUELS AND OF OXIDANT IN TOTAL OXIDANTS









               THERMODYNAMIC EQUILIBRIUM PROPERTIES AT ASSIGNED

                           TEMPERATURE AND PRESSURE

 CASE =                

             REACTANT                    WT FRACTION      ENERGY      TEMP
                                          (SEE NOTE)     KJ/KG-MOL      K  
 FUEL        H2                           1.0000000         0.000      0.000
 OXIDANT     H2                           1.0000000         0.000      0.000

 O/F=    1.00000  %FUEL= 50.000000  R,EQ.RATIO= 0.000000  PHI,EQ.RATIO=-1.000000

 THERMODYNAMIC PROPERTIES

 P, BAR            8.2500   8.2500   8.2500   8.2500   9.1000   9.1000   9.1000   9.1000
 T, K              355.00   360.00   365.00   370.00   300.00   305.00   310.00   315.00
 RHO, KG/CU M    5.6345-1 5.5563-1 5.4801-1 5.4061-1 7.3544-1 7.2339-1 7.1172-1 7.0042-1
 H, KJ/KG          817.50   889.70   961.93  1034.19   26.469   98.065   169.74   241.49
 U, KJ/KG         -646.69  -595.11  -543.51  -491.87 -1210.88 -1159.90 -1108.85 -1057.72
 G, KJ/KG        -19996.7 -20290.3 -20585.0 -20880.7 -16715.4 -16995.0 -17275.8 -17557.8
 S, KJ/(KG)(K)    58.6315  58.8334  59.0327  59.2293  55.8063  56.0429  56.2760  56.5056

 M, (1/n)           2.016    2.016    2.016    2.016    2.016    2.016    2.016    2.016
 (dLV/dLP)t      -0.99999 -0.99999 -0.99999 -0.99999 -0.99999 -0.99999 -0.99999 -0.99999
 (dLV/dLT)p        1.0000   1.0000   1.0000   1.0000   1.0000   1.0000   1.0000   1.0000
 Cp, KJ/(KG)(K)   14.4360  14.4427  14.4489  14.4545  14.3109  14.3272  14.3423  14.3563
 GAMMAs            1.4000   1.3997   1.3995   1.3993   1.4049   1.4043   1.4037   1.4031
 SON VEL,M/SEC     1431.7   1441.6   1451.5   1461.3   1318.5   1329.1   1339.7   1350.2

 TRANSPORT PROPERTIES (GASES ONLY)
   CONDUCTIVITY IN UNITS OF MILLIWATTS/(CM)(K)

 VISC,MILLIPOISE  0.04409  0.08617  0.09984  0.10296  0.00000  0.00000  0.00000  0.00000

  WITH EQUILIBRIUM REACTIONS

 Cp, KJ/(KG)(K)   14.4360  14.4427  14.4489  14.4545  14.3109  14.3272  14.3423  14.3563
 CONDUCTIVITY      0.3949   1.3317   1.9838   2.1495   0.0000   0.0000   0.0000   0.0000
 PRANDTL NUMBER    1.6120   0.9345   0.7272   0.6924   2.3304   2.3307   2.3311   2.3315

  WITH FROZEN REACTIONS

 Cp, KJ/(KG)(K)   14.4360  14.4427  14.4489  14.4545  14.3109  14.3272  14.3423  14.3563
 CONDUCTIVITY      0.3949   1.3317   1.9838   2.1495   0.0000   0.0000   0.0000   0.0000
 PRANDTL NUMBER    1.6120   0.9345   0.7272   0.6924   2.3304   2.3307   2.3311   2.3315

 MASS FRACTIONS

 *H2              1.00000  1.00000  1.00000  1.00000  1.00000  1.00000  1.00000  1.00000

  * THERMODYNAMIC PROPERTIES FITTED TO 20000.K

 NOTE. WEIGHT FRACTION OF FUEL IN TOTAL FUELS AND OF OXIDANT IN TOTAL OXIDANTS









               THERMODYNAMIC EQUILIBRIUM PROPERTIES AT ASSIGNED

                           TEMPERATURE AND PRESSURE

 CASE =                

             REACTANT                    WT FRACTION      ENERGY      TEMP
                                          (SEE NOTE)     KJ/KG-MOL      K  
 FUEL        H2                           1.0000000         0.000      0.000
 OXIDANT     H2                           1.0000000         0.000      0.000

 O/F=    1.00000  %FUEL= 50.000000  R,EQ.RATIO= 0.000000  PHI,EQ.RATIO=-1.000000

 THERMODYNAMIC PROPERTIES

 P, BAR            9.1000   9.1000   9.1000   9.1000   9.1000   9.1000   9.1000   9.1000
 T, K              320.00   325.00   330.00   335.00   340.00   345.00   350.00   355.00
 RHO, KG/CU M    6.8948-1 6.7887-1 6.6859-1 6.5861-1 6.4892-1 6.3952-1 6.3038-1 6.2150-1
 H, KJ/KG          313.30   385.18   457.11   529.10   601.14   673.22   745.34   817.50
 U, KJ/KG        -1006.53  -955.28  -903.97  -852.60  -801.19  -749.73  -698.23  -646.69
 G, KJ/KG        -17840.9 -18125.1 -18410.4 -18696.8 -18984.3 -19272.9 -19562.5 -19853.1
 S, KJ/(KG)(K)    56.7318  56.9547  57.1743  57.3908  57.6043  57.8147  58.0223  58.2270

 M, (1/n)           2.016    2.016    2.016    2.016    2.016    2.016    2.016    2.016
 (dLV/dLP)t      -0.99999 -0.99999 -0.99999 -0.99999 -0.99999 -0.99999 -0.99999 -0.99999
 (dLV/dLT)p        1.0000   1.0000   1.0000   1.0000   1.0000   1.0000   1.0000   1.0000
 Cp, KJ/(KG)(K)   14.3693  14.3813  14.3923  14.4026  14.4120  14.4207  14.4286  14.4360
 GAMMAs            1.4026   1.4021   1.4017   1.4013   1.4009   1.4006   1.4003   1.4000
 SON VEL,M/SEC     1360.6   1370.9   1381.2   1391.5   1401.6   1411.7   1421.8   1431.7

 TRANSPORT PROPERTIES (GASES ONLY)
   CONDUCTIVITY IN UNITS OF MILLIWATTS/(CM)(K)

 VISC,MILLIPOISE  0.00000  0.00000  0.00000  0.00002  0.00015  0.00127  0.00934  0.04409

  WITH EQUILIBRIUM REACTIONS

 Cp, KJ/(KG)(K)   14.3693  14.3813  14.3923  14.4026  14.4120  14.4207  14.4286  14.4360
 CONDUCTIVITY      0.0000   0.0000   0.0000   0.0001   0.0009   0.0079   0.0618   0.3949
 PRANDTL NUMBER    2.3320   2.3326   2.3331   2.3334   2.3317   2.3136   2.1806   1.6120

  WITH FROZEN REACTIONS

 Cp, KJ/(KG)(K)   14.3693  14.3813  14.3923  14.4026  14.4120  14.4207  14.4286  14.4360
 CONDUCTIVITY      0.0000   0.0000   0.0000   0.0001   0.0009   0.0079   0.0618   0.3949
 PRANDTL NUMBER    2.3320   2.3326   2.3331   2.3334   2.3317   2.3136   2.1806   1.6120

 MASS FRACTIONS

 *H2              1.00000  1.00000  1.00000  1.00000  1.00000  1.00000  1.00000  1.00000

  * THERMODYNAMIC PROPERTIES FITTED TO 20000.K

 NOTE. WEIGHT FRACTION OF FUEL IN TOTAL FUELS AND OF OXIDANT IN TOTAL OXIDANTS









               THERMODYNAMIC EQUILIBRIUM PROPERTIES AT ASSIGNED

                           TEMPERATURE AND PRESSURE

 CASE =                

             REACTANT                    WT FRACTION      ENERGY      TEMP
                                          (SEE NOTE)     KJ/KG-MOL      K  
 FUEL        H2                           1.0000000         0.000      0.000
 OXIDANT     H2                           1.0000000         0.000      0.000

 O/F=    1.00000  %FUEL= 50.000000  R,EQ.RATIO= 0.000000  PHI,EQ.RATIO=-1.000000

 THERMODYNAMIC PROPERTIES

 P, BAR            9.1000   9.1000   9.1000   10.000   10.000   10.000   10.000   10.000
 T, K              360.00   365.00   370.00   300.00   305.00   310.00   315.00   320.00
 RHO, KG/CU M    6.1287-1 6.0448-1 5.9631-1 8.0818-1 7.9493-1 7.8211-1 7.6970-1 7.5767-1
 H, KJ/KG          889.70   961.93  1034.19   26.469   98.065   169.74   241.49   313.30
 U, KJ/KG         -595.11  -543.51  -491.87 -1210.88 -1159.90 -1108.85 -1057.72 -1006.53
 G, KJ/KG        -20144.7 -20437.4 -20731.0 -16598.7 -16876.4 -17155.2 -17435.2 -17716.4
 S, KJ/(KG)(K)    58.4290  58.6282  58.8248  55.4173  55.6540  55.8870  56.1166  56.3428

 M, (1/n)           2.016    2.016    2.016    2.016    2.016    2.016    2.016    2.016
 (dLV/dLP)t      -0.99999 -0.99999 -0.99999 -0.99999 -0.99999 -0.99999 -0.99999 -0.99999
 (dLV/dLT)p        1.0000   1.0000   1.0000   1.0000   1.0000   1.0000   1.0000   1.0000
 Cp, KJ/(KG)(K)   14.4427  14.4489  14.4545  14.3109  14.3272  14.3423  14.3563  14.3693
 GAMMAs            1.3997   1.3995   1.3993   1.4049   1.4043   1.4037   1.4031   1.4026
 SON VEL,M/SEC     1441.6   1451.5   1461.3   1318.5   1329.1   1339.7   1350.2   1360.6

 TRANSPORT PROPERTIES (GASES ONLY)
   CONDUCTIVITY IN UNITS OF MILLIWATTS/(CM)(K)

 VISC,MILLIPOISE  0.08617  0.09984  0.10296  0.00000  0.00000  0.00000  0.00000  0.00000

  WITH EQUILIBRIUM REACTIONS

 Cp, KJ/(KG)(K)   14.4427  14.4489  14.4545  14.3109  14.3272  14.3423  14.3563  14.3693
 CONDUCTIVITY      1.3317   1.9838   2.1495   0.0000   0.0000   0.0000   0.0000   0.0000
 PRANDTL NUMBER    0.9345   0.7272   0.6924   2.3304   2.3307   2.3311   2.3315   2.3320

  WITH FROZEN REACTIONS

 Cp, KJ/(KG)(K)   14.4427  14.4489  14.4545  14.3109  14.3272  14.3423  14.3563  14.3693
 CONDUCTIVITY      1.3317   1.9838   2.1495   0.0000   0.0000   0.0000   0.0000   0.0000
 PRANDTL NUMBER    0.9345   0.7272   0.6924   2.3304   2.3307   2.3311   2.3315   2.3320

 MASS FRACTIONS

 *H2              1.00000  1.00000  1.00000  1.00000  1.00000  1.00000  1.00000  1.00000

  * THERMODYNAMIC PROPERTIES FITTED TO 20000.K

 NOTE. WEIGHT FRACTION OF FUEL IN TOTAL FUELS AND OF OXIDANT IN TOTAL OXIDANTS









               THERMODYNAMIC EQUILIBRIUM PROPERTIES AT ASSIGNED

                           TEMPERATURE AND PRESSURE

 CASE =                

             REACTANT                    WT FRACTION      ENERGY      TEMP
                                          (SEE NOTE)     KJ/KG-MOL      K  
 FUEL        H2                           1.0000000         0.000      0.000
 OXIDANT     H2                           1.0000000         0.000      0.000

 O/F=    1.00000  %FUEL= 50.000000  R,EQ.RATIO= 0.000000  PHI,EQ.RATIO=-1.000000

 THERMODYNAMIC PROPERTIES

 P, BAR            10.000   10.000   10.000   10.000   10.000   10.000   10.000   10.000
 T, K              325.00   330.00   335.00   340.00   345.00   350.00   355.00   360.00
 RHO, KG/CU M    7.4601-1 7.3471-1 7.2375-1 7.1310-1 7.0277-1 6.9273-1 6.8297-1 6.7349-1
 H, KJ/KG          385.18   457.11   529.10   601.14   673.22   745.34   817.50   889.70
 U, KJ/KG         -955.28  -903.97  -852.60  -801.19  -749.73  -698.23  -646.69  -595.11
 G, KJ/KG        -17998.7 -18282.0 -18566.5 -18852.1 -19138.7 -19426.3 -19715.0 -20004.7
 S, KJ/(KG)(K)    56.5657  56.7853  57.0018  57.2153  57.4257  57.6333  57.8380  58.0400

 M, (1/n)           2.016    2.016    2.016    2.016    2.016    2.016    2.016    2.016
 (dLV/dLP)t      -0.99999 -0.99999 -0.99999 -0.99999 -0.99999 -0.99999 -0.99999 -0.99999
 (dLV/dLT)p        1.0000   1.0000   1.0000   1.0000   1.0000   1.0000   1.0000   1.0000
 Cp, KJ/(KG)(K)   14.3813  14.3923  14.4026  14.4120  14.4207  14.4286  14.4360  14.4427
 GAMMAs            1.4021   1.4017   1.4013   1.4009   1.4006   1.4003   1.4000   1.3997
 SON VEL,M/SEC     1370.9   1381.2   1391.5   1401.6   1411.7   1421.8   1431.7   1441.6

 TRANSPORT PROPERTIES (GASES ONLY)
   CONDUCTIVITY IN UNITS OF MILLIWATTS/(CM)(K)

 VISC,MILLIPOISE  0.00000  0.00000  0.00002  0.00015  0.00127  0.00934  0.04409  0.08617

  WITH EQUILIBRIUM REACTIONS

 Cp, KJ/(KG)(K)   14.3813  14.3923  14.4026  14.4120  14.4207  14.4286  14.4360  14.4427
 CONDUCTIVITY      0.0000   0.0000   0.0001   0.0009   0.0079   0.0618   0.3949   1.3317
 PRANDTL NUMBER    2.3326   2.3331   2.3334   2.3317   2.3136   2.1806   1.6120   0.9345

  WITH FROZEN REACTIONS

 Cp, KJ/(KG)(K)   14.3813  14.3923  14.4026  14.4120  14.4207  14.4286  14.4360  14.4427
 CONDUCTIVITY      0.0000   0.0000   0.0001   0.0009   0.0079   0.0618   0.3949   1.3317
 PRANDTL NUMBER    2.3326   2.3331   2.3334   2.3317   2.3136   2.1806   1.6120   0.9345

 MASS FRACTIONS

 *H2              1.00000  1.00000  1.00000  1.00000  1.00000  1.00000  1.00000  1.00000

  * THERMODYNAMIC PROPERTIES FITTED TO 20000.K

 NOTE. WEIGHT FRACTION OF FUEL IN TOTAL FUELS AND OF OXIDANT IN TOTAL OXIDANTS









               THERMODYNAMIC EQUILIBRIUM PROPERTIES AT ASSIGNED

                           TEMPERATURE AND PRESSURE

 CASE =                

             REACTANT                    WT FRACTION      ENERGY      TEMP
                                          (SEE NOTE)     KJ/KG-MOL      K  
 FUEL        H2                           1.0000000         0.000      0.000
 OXIDANT     H2                           1.0000000         0.000      0.000

 O/F=    1.00000  %FUEL= 50.000000  R,EQ.RATIO= 0.000000  PHI,EQ.RATIO=-1.000000

 THERMODYNAMIC PROPERTIES

 P, BAR            10.000   10.000   11.000   11.000   11.000   11.000   11.000   11.000
 T, K              365.00   370.00   300.00   305.00   310.00   315.00   320.00   325.00
 RHO, KG/CU M    6.6426-1 6.5528-1 8.8900-1 8.7443-1 8.6032-1 8.4667-1 8.3344-1 8.2062-1
 H, KJ/KG          961.93  1034.19   26.469   98.065   169.74   241.49   313.30   385.18
 U, KJ/KG         -543.51  -491.87 -1210.88 -1159.90 -1108.85 -1057.72 -1006.53  -955.28
 G, KJ/KG        -20295.4 -20587.1 -16480.8 -16756.5 -17033.4 -17311.4 -17590.6 -17870.9
 S, KJ/(KG)(K)    58.2392  58.4359  55.0242  55.2609  55.4939  55.7235  55.9497  56.1726

 M, (1/n)           2.016    2.016    2.016    2.016    2.016    2.016    2.016    2.016
 (dLV/dLP)t      -0.99999 -0.99999 -0.99999 -0.99999 -0.99999 -0.99999 -0.99999 -0.99999
 (dLV/dLT)p        1.0000   1.0000   1.0000   1.0000   1.0000   1.0000   1.0000   1.0000
 Cp, KJ/(KG)(K)   14.4489  14.4545  14.3109  14.3272  14.3423  14.3563  14.3693  14.3813
 GAMMAs            1.3995   1.3993   1.4049   1.4043   1.4037   1.4031   1.4026   1.4021
 SON VEL,M/SEC     1451.5   1461.3   1318.5   1329.1   1339.7   1350.2   1360.6   1370.9

 TRANSPORT PROPERTIES (GASES ONLY)
   CONDUCTIVITY IN UNITS OF MILLIWATTS/(CM)(K)

 VISC,MILLIPOISE  0.09984  0.10296  0.00000  0.00000  0.00000  0.00000  0.00000  0.00000

  WITH EQUILIBRIUM REACTIONS

 Cp, KJ/(KG)(K)   14.4489  14.4545  14.3109  14.3272  14.3423  14.3563  14.3693  14.3813
 CONDUCTIVITY      1.9838   2.1495   0.0000   0.0000   0.0000   0.0000   0.0000   0.0000
 PRANDTL NUMBER    0.7272   0.6924   2.3304   2.3307   2.3311   2.3315   2.3320   2.3326

  WITH FROZEN REACTIONS

 Cp, KJ/(KG)(K)   14.4489  14.4545  14.3109  14.3272  14.3423  14.3563  14.3693  14.3813
 CONDUCTIVITY      1.9838   2.1495   0.0000   0.0000   0.0000   0.0000   0.0000   0.0000
 PRANDTL NUMBER    0.7272   0.6924   2.3304   2.3307   2.3311   2.3315   2.3320   2.3326

 MASS FRACTIONS

 *H2              1.00000  1.00000  1.00000  1.00000  1.00000  1.00000  1.00000  1.00000

  * THERMODYNAMIC PROPERTIES FITTED TO 20000.K

 NOTE. WEIGHT FRACTION OF FUEL IN TOTAL FUELS AND OF OXIDANT IN TOTAL OXIDANTS









               THERMODYNAMIC EQUILIBRIUM PROPERTIES AT ASSIGNED

                           TEMPERATURE AND PRESSURE

 CASE =                

             REACTANT                    WT FRACTION      ENERGY      TEMP
                                          (SEE NOTE)     KJ/KG-MOL      K  
 FUEL        H2                           1.0000000         0.000      0.000
 OXIDANT     H2                           1.0000000         0.000      0.000

 O/F=    1.00000  %FUEL= 50.000000  R,EQ.RATIO= 0.000000  PHI,EQ.RATIO=-1.000000

 THERMODYNAMIC PROPERTIES

 P, BAR            11.000   11.000   11.000   11.000   11.000   11.000   11.000   11.000
 T, K              330.00   335.00   340.00   345.00   350.00   355.00   360.00   365.00
 RHO, KG/CU M    8.0818-1 7.9612-1 7.8441-1 7.7304-1 7.6200-1 7.5127-1 7.4083-1 7.3069-1
 H, KJ/KG          457.11   529.10   601.14   673.22   745.34   817.50   889.70   961.93
 U, KJ/KG         -903.97  -852.60  -801.19  -749.73  -698.23  -646.69  -595.11  -543.51
 G, KJ/KG        -18152.3 -18434.8 -18718.4 -19003.0 -19288.7 -19575.4 -19863.2 -20151.9
 S, KJ/(KG)(K)    56.3922  56.6087  56.8222  57.0326  57.2402  57.4449  57.6469  57.8461

 M, (1/n)           2.016    2.016    2.016    2.016    2.016    2.016    2.016    2.016
 (dLV/dLP)t      -0.99999 -0.99999 -0.99999 -0.99999 -0.99999 -0.99999 -0.99999 -0.99999
 (dLV/dLT)p        1.0000   1.0000   1.0000   1.0000   1.0000   1.0000   1.0000   1.0000
 Cp, KJ/(KG)(K)   14.3923  14.4026  14.4120  14.4207  14.4286  14.4360  14.4427  14.4489
 GAMMAs            1.4017   1.4013   1.4009   1.4006   1.4003   1.4000   1.3997   1.3995
 SON VEL,M/SEC     1381.2   1391.5   1401.6   1411.7   1421.8   1431.7   1441.6   1451.5

 TRANSPORT PROPERTIES (GASES ONLY)
   CONDUCTIVITY IN UNITS OF MILLIWATTS/(CM)(K)

 VISC,MILLIPOISE  0.00000  0.00002  0.00015  0.00127  0.00934  0.04409  0.08617  0.09984

  WITH EQUILIBRIUM REACTIONS

 Cp, KJ/(KG)(K)   14.3923  14.4026  14.4120  14.4207  14.4286  14.4360  14.4427  14.4489
 CONDUCTIVITY      0.0000   0.0001   0.0009   0.0079   0.0618   0.3949   1.3317   1.9838
 PRANDTL NUMBER    2.3331   2.3334   2.3317   2.3136   2.1806   1.6120   0.9345   0.7272

  WITH FROZEN REACTIONS

 Cp, KJ/(KG)(K)   14.3923  14.4026  14.4120  14.4207  14.4286  14.4360  14.4427  14.4489
 CONDUCTIVITY      0.0000   0.0001   0.0009   0.0079   0.0618   0.3949   1.3317   1.9838
 PRANDTL NUMBER    2.3331   2.3334   2.3317   2.3136   2.1806   1.6120   0.9345   0.7272

 MASS FRACTIONS

 *H2              1.00000  1.00000  1.00000  1.00000  1.00000  1.00000  1.00000  1.00000

  * THERMODYNAMIC PROPERTIES FITTED TO 20000.K

 NOTE. WEIGHT FRACTION OF FUEL IN TOTAL FUELS AND OF OXIDANT IN TOTAL OXIDANTS









               THERMODYNAMIC EQUILIBRIUM PROPERTIES AT ASSIGNED

                           TEMPERATURE AND PRESSURE

 CASE =                

             REACTANT                    WT FRACTION      ENERGY      TEMP
                                          (SEE NOTE)     KJ/KG-MOL      K  
 FUEL        H2                           1.0000000         0.000      0.000
 OXIDANT     H2                           1.0000000         0.000      0.000

 O/F=    1.00000  %FUEL= 50.000000  R,EQ.RATIO= 0.000000  PHI,EQ.RATIO=-1.000000

 THERMODYNAMIC PROPERTIES

 P, BAR            11.000
 T, K              370.00
 RHO, KG/CU M    7.2081-1
 H, KJ/KG         1034.19
 U, KJ/KG         -491.87
 G, KJ/KG        -20441.6
 S, KJ/(KG)(K)    58.0427

 M, (1/n)           2.016
 (dLV/dLP)t      -0.99999
 (dLV/dLT)p        1.0000
 Cp, KJ/(KG)(K)   14.4545
 GAMMAs            1.3993
 SON VEL,M/SEC     1461.3

 TRANSPORT PROPERTIES (GASES ONLY)
   CONDUCTIVITY IN UNITS OF MILLIWATTS/(CM)(K)

 VISC,MILLIPOISE  0.10296

  WITH EQUILIBRIUM REACTIONS

 Cp, KJ/(KG)(K)   14.4545
 CONDUCTIVITY      2.1495
 PRANDTL NUMBER    0.6924

  WITH FROZEN REACTIONS

 Cp, KJ/(KG)(K)   14.4545
 CONDUCTIVITY      2.1495
 PRANDTL NUMBER    0.6924

 MASS FRACTIONS

 *H2              1.00000

  * THERMODYNAMIC PROPERTIES FITTED TO 20000.K

 NOTE. WEIGHT FRACTION OF FUEL IN TOTAL FUELS AND OF OXIDANT IN TOTAL OXIDANTS



  
