
 *******************************************************************************

         NASA-GLENN CHEMICAL EQUILIBRIUM PROGRAM CEA2, MAY 21, 2004
                   BY  BONNIE MCBRIDE AND SANFORD GORDON
      REFS: NASA RP-1311, PART I, 1994 AND NASA RP-1311, PART II, 1996

 *******************************************************************************



  prob tp ions
  p,bar= 280.0,310.0,350.0,390.0,440.0,490.0,540.0,600.0,670.0,740.0,825.0,910.0
  t,k= 1100,1110,1120,1130,1140,1150,1160,1170,1180,1190,1200,1210,1220,1230,1240
  
  
  reac
  fuel H2                wt%=100.0000
  oxid H2                wt%=100.0000
  
  output short
  
  output massf
  
  output siunits
  
  output transport
  
 end





               THERMODYNAMIC EQUILIBRIUM PROPERTIES AT ASSIGNED

                           TEMPERATURE AND PRESSURE

 CASE =                

             REACTANT                    WT FRACTION      ENERGY      TEMP
                                          (SEE NOTE)     KJ/KG-MOL      K  
 FUEL        H2                           1.0000000         0.000      0.000
 OXIDANT     H2                           1.0000000         0.000      0.000

 O/F=    1.00000  %FUEL= 50.000000  R,EQ.RATIO= 0.000000  PHI,EQ.RATIO=-1.000000

 THERMODYNAMIC PROPERTIES

 P, BAR            280.00   280.00   280.00   280.00   280.00   280.00   280.00   280.00
 T, K             1100.00  1110.00  1120.00  1130.00  1140.00  1150.00  1160.00  1170.00
 RHO, KG/CU M    6.1715 0 6.1160 0 6.0614 0 6.0077 0 5.9550 0 5.9032 0 5.8524 0 5.8023 0
 H, KJ/KG         11765.1  11916.9  12068.8  12220.9  12373.2  12525.8  12678.5  12831.5
 U, KJ/KG         7228.19  7338.68  7449.36  7560.24  7671.33  7782.62  7894.12  8005.83
 G, KJ/KG        -54949.2 -55556.2 -56164.7 -56774.6 -57385.8 -57998.4 -58612.3 -59227.6
 S, KJ/(KG)(K)    60.6494  60.7866  60.9228  61.0580  61.1922  61.3254  61.4576  61.5889

 M, (1/n)           2.016    2.016    2.016    2.016    2.016    2.016    2.016    2.016
 (dLV/dLP)t      -1.00000 -1.00000 -0.99999 -0.99999 -0.99999 -0.99999 -0.99999 -0.99999
 (dLV/dLT)p        1.0000   1.0000   1.0000   1.0000   1.0000   1.0000   1.0000   1.0000
 Cp, KJ/(KG)(K)   15.1633  15.1830  15.2029  15.2231  15.2435  15.2641  15.2848  15.3057
 GAMMAs            1.3736   1.3730   1.3723   1.3716   1.3710   1.3703   1.3696   1.3689
 SON VEL,M/SEC     2496.4   2507.1   2517.8   2528.4   2538.9   2549.4   2559.8   2570.2

 TRANSPORT PROPERTIES (GASES ONLY)
   CONDUCTIVITY IN UNITS OF MILLIWATTS/(CM)(K)

 VISC,MILLIPOISE  0.21980  0.22120  0.22258  0.22396  0.22534  0.22671  0.22808  0.22944

  WITH EQUILIBRIUM REACTIONS

 Cp, KJ/(KG)(K)   15.1633  15.1830  15.2029  15.2231  15.2435  15.2641  15.2848  15.3057
 CONDUCTIVITY      4.7907   4.8260   4.8614   4.8969   4.9324   4.9680   5.0036   5.0393
 PRANDTL NUMBER    0.6957   0.6959   0.6961   0.6962   0.6964   0.6966   0.6967   0.6969

  WITH FROZEN REACTIONS

 Cp, KJ/(KG)(K)   15.1633  15.1830  15.2029  15.2231  15.2435  15.2641  15.2848  15.3057
 CONDUCTIVITY      4.7907   4.8260   4.8614   4.8969   4.9324   4.9680   5.0036   5.0393
 PRANDTL NUMBER    0.6957   0.6959   0.6961   0.6962   0.6964   0.6966   0.6967   0.6969

 MASS FRACTIONS

 *H2              1.00000  1.00000  1.00000  1.00000  1.00000  1.00000  1.00000  1.00000

  * THERMODYNAMIC PROPERTIES FITTED TO 20000.K

 NOTE. WEIGHT FRACTION OF FUEL IN TOTAL FUELS AND OF OXIDANT IN TOTAL OXIDANTS









               THERMODYNAMIC EQUILIBRIUM PROPERTIES AT ASSIGNED

                           TEMPERATURE AND PRESSURE

 CASE =                

             REACTANT                    WT FRACTION      ENERGY      TEMP
                                          (SEE NOTE)     KJ/KG-MOL      K  
 FUEL        H2                           1.0000000         0.000      0.000
 OXIDANT     H2                           1.0000000         0.000      0.000

 O/F=    1.00000  %FUEL= 50.000000  R,EQ.RATIO= 0.000000  PHI,EQ.RATIO=-1.000000

 THERMODYNAMIC PROPERTIES

 P, BAR            280.00   280.00   280.00   280.00   280.00   280.00   280.00   310.00
 T, K             1180.00  1190.00  1200.00  1210.00  1220.00  1230.00  1240.00  1100.00
 RHO, KG/CU M    5.7532 0 5.7048 0 5.6573 0 5.6105 0 5.5645 0 5.5193 0 5.4748 0 6.8328 0
 H, KJ/KG         12984.6  13138.0  13291.6  13445.4  13599.4  13753.6  13908.1  11765.1
 U, KJ/KG         8117.75  8229.88  8342.22  8454.78  8567.55  8680.53  8793.73  7228.19
 G, KJ/KG        -59844.1 -60462.0 -61081.1 -61701.5 -62323.2 -62946.1 -63570.3 -54487.3
 S, KJ/(KG)(K)    61.7193  61.8487  61.9772  62.1049  62.2316  62.3575  62.4826  60.2294

 M, (1/n)           2.016    2.016    2.016    2.016    2.016    2.016    2.016    2.016
 (dLV/dLP)t      -0.99999 -0.99999 -0.99999 -0.99999 -0.99999 -0.99999 -0.99999 -1.00000
 (dLV/dLT)p        1.0000   1.0000   1.0000   1.0000   1.0000   1.0000   1.0000   1.0000
 Cp, KJ/(KG)(K)   15.3268  15.3480  15.3693  15.3907  15.4123  15.4339  15.4556  15.1633
 GAMMAs            1.3682   1.3675   1.3668   1.3661   1.3654   1.3647   1.3640   1.3736
 SON VEL,M/SEC     2580.5   2590.7   2600.9   2611.1   2621.2   2631.2   2641.2   2496.4

 TRANSPORT PROPERTIES (GASES ONLY)
   CONDUCTIVITY IN UNITS OF MILLIWATTS/(CM)(K)

 VISC,MILLIPOISE  0.23080  0.23215  0.23350  0.23485  0.23619  0.23753  0.23887  0.21980

  WITH EQUILIBRIUM REACTIONS

 Cp, KJ/(KG)(K)   15.3268  15.3480  15.3693  15.3907  15.4123  15.4339  15.4556  15.1633
 CONDUCTIVITY      5.0750   5.1107   5.1465   5.1823   5.2182   5.2541   5.2900   4.7905
 PRANDTL NUMBER    0.6970   0.6972   0.6973   0.6975   0.6976   0.6978   0.6979   0.6957

  WITH FROZEN REACTIONS

 Cp, KJ/(KG)(K)   15.3268  15.3480  15.3693  15.3907  15.4122  15.4339  15.4556  15.1633
 CONDUCTIVITY      5.0750   5.1107   5.1465   5.1823   5.2182   5.2540   5.2900   4.7905
 PRANDTL NUMBER    0.6970   0.6972   0.6973   0.6975   0.6976   0.6978   0.6979   0.6957

 MASS FRACTIONS

 *H2              1.00000  1.00000  1.00000  1.00000  1.00000  1.00000  1.00000  1.00000

  * THERMODYNAMIC PROPERTIES FITTED TO 20000.K

 NOTE. WEIGHT FRACTION OF FUEL IN TOTAL FUELS AND OF OXIDANT IN TOTAL OXIDANTS









               THERMODYNAMIC EQUILIBRIUM PROPERTIES AT ASSIGNED

                           TEMPERATURE AND PRESSURE

 CASE =                

             REACTANT                    WT FRACTION      ENERGY      TEMP
                                          (SEE NOTE)     KJ/KG-MOL      K  
 FUEL        H2                           1.0000000         0.000      0.000
 OXIDANT     H2                           1.0000000         0.000      0.000

 O/F=    1.00000  %FUEL= 50.000000  R,EQ.RATIO= 0.000000  PHI,EQ.RATIO=-1.000000

 THERMODYNAMIC PROPERTIES

 P, BAR            310.00   310.00   310.00   310.00   310.00   310.00   310.00   310.00
 T, K             1110.00  1120.00  1130.00  1140.00  1150.00  1160.00  1170.00  1180.00
 RHO, KG/CU M    6.7713 0 6.7108 0 6.6514 0 6.5931 0 6.5357 0 6.4794 0 6.4240 0 6.3696 0
 H, KJ/KG         11916.9  12068.8  12220.9  12373.2  12525.8  12678.5  12831.5  12984.6
 U, KJ/KG         7338.67  7449.36  7560.24  7671.33  7782.62  7894.12  8005.83  8117.75
 G, KJ/KG        -55090.2 -55694.5 -56300.2 -56907.3 -57515.7 -58125.4 -58736.4 -59348.8
 S, KJ/(KG)(K)    60.3667  60.5029  60.6382  60.7724  60.9056  61.0378  61.1691  61.2995

 M, (1/n)           2.016    2.016    2.016    2.016    2.016    2.016    2.016    2.016
 (dLV/dLP)t      -0.99999 -0.99999 -0.99999 -0.99999 -0.99999 -0.99999 -0.99999 -0.99999
 (dLV/dLT)p        1.0000   1.0000   1.0000   1.0000   1.0000   1.0000   1.0000   1.0000
 Cp, KJ/(KG)(K)   15.1830  15.2029  15.2231  15.2435  15.2641  15.2848  15.3057  15.3268
 GAMMAs            1.3730   1.3723   1.3716   1.3710   1.3703   1.3696   1.3689   1.3682
 SON VEL,M/SEC     2507.1   2517.8   2528.4   2538.9   2549.4   2559.8   2570.2   2580.5

 TRANSPORT PROPERTIES (GASES ONLY)
   CONDUCTIVITY IN UNITS OF MILLIWATTS/(CM)(K)

 VISC,MILLIPOISE  0.22120  0.22258  0.22396  0.22534  0.22671  0.22808  0.22944  0.23080

  WITH EQUILIBRIUM REACTIONS

 Cp, KJ/(KG)(K)   15.1830  15.2029  15.2231  15.2435  15.2641  15.2848  15.3057  15.3268
 CONDUCTIVITY      4.8259   4.8614   4.8969   4.9324   4.9680   5.0036   5.0393   5.0750
 PRANDTL NUMBER    0.6959   0.6961   0.6962   0.6964   0.6966   0.6967   0.6969   0.6970

  WITH FROZEN REACTIONS

 Cp, KJ/(KG)(K)   15.1830  15.2029  15.2231  15.2435  15.2641  15.2848  15.3057  15.3268
 CONDUCTIVITY      4.8259   4.8614   4.8969   4.9324   4.9680   5.0036   5.0393   5.0750
 PRANDTL NUMBER    0.6959   0.6961   0.6962   0.6964   0.6966   0.6967   0.6969   0.6970

 MASS FRACTIONS

 *H2              1.00000  1.00000  1.00000  1.00000  1.00000  1.00000  1.00000  1.00000

  * THERMODYNAMIC PROPERTIES FITTED TO 20000.K

 NOTE. WEIGHT FRACTION OF FUEL IN TOTAL FUELS AND OF OXIDANT IN TOTAL OXIDANTS









               THERMODYNAMIC EQUILIBRIUM PROPERTIES AT ASSIGNED

                           TEMPERATURE AND PRESSURE

 CASE =                

             REACTANT                    WT FRACTION      ENERGY      TEMP
                                          (SEE NOTE)     KJ/KG-MOL      K  
 FUEL        H2                           1.0000000         0.000      0.000
 OXIDANT     H2                           1.0000000         0.000      0.000

 O/F=    1.00000  %FUEL= 50.000000  R,EQ.RATIO= 0.000000  PHI,EQ.RATIO=-1.000000

 THERMODYNAMIC PROPERTIES

 P, BAR            310.00   310.00   310.00   310.00   310.00   310.00   350.00   350.00
 T, K             1190.00  1200.00  1210.00  1220.00  1230.00  1240.00  1100.00  1110.00
 RHO, KG/CU M    6.3160 0 6.2634 0 6.2116 0 6.1607 0 6.1106 0 6.0614 0 7.7144 0 7.6450 0
 H, KJ/KG         13138.0  13291.6  13445.4  13599.4  13753.6  13908.1  11765.1  11916.9
 U, KJ/KG         8229.88  8342.22  8454.78  8567.55  8680.53  8793.73  7228.19  7338.67
 G, KJ/KG        -59962.4 -60577.3 -61193.5 -61811.0 -62429.8 -63049.8 -53936.6 -54534.6
 S, KJ/(KG)(K)    61.4289  61.5574  61.6851  61.8118  61.9377  62.0628  59.7289  59.8662

 M, (1/n)           2.016    2.016    2.016    2.016    2.016    2.016    2.016    2.016
 (dLV/dLP)t      -0.99999 -0.99999 -0.99999 -0.99999 -0.99999 -0.99999 -1.00000 -0.99999
 (dLV/dLT)p        1.0000   1.0000   1.0000   1.0000   1.0000   1.0000   1.0000   1.0000
 Cp, KJ/(KG)(K)   15.3480  15.3693  15.3907  15.4123  15.4339  15.4556  15.1633  15.1830
 GAMMAs            1.3675   1.3668   1.3661   1.3654   1.3647   1.3640   1.3736   1.3730
 SON VEL,M/SEC     2590.7   2600.9   2611.1   2621.2   2631.2   2641.2   2496.4   2507.1

 TRANSPORT PROPERTIES (GASES ONLY)
   CONDUCTIVITY IN UNITS OF MILLIWATTS/(CM)(K)

 VISC,MILLIPOISE  0.23215  0.23350  0.23485  0.23619  0.23753  0.23887  0.21980  0.22120

  WITH EQUILIBRIUM REACTIONS

 Cp, KJ/(KG)(K)   15.3480  15.3693  15.3907  15.4123  15.4339  15.4556  15.1633  15.1830
 CONDUCTIVITY      5.1107   5.1465   5.1823   5.2182   5.2541   5.2900   4.7905   4.8259
 PRANDTL NUMBER    0.6972   0.6973   0.6975   0.6976   0.6978   0.6979   0.6957   0.6959

  WITH FROZEN REACTIONS

 Cp, KJ/(KG)(K)   15.3480  15.3693  15.3907  15.4122  15.4339  15.4556  15.1633  15.1830
 CONDUCTIVITY      5.1107   5.1465   5.1823   5.2182   5.2540   5.2900   4.7905   4.8259
 PRANDTL NUMBER    0.6972   0.6973   0.6975   0.6976   0.6978   0.6979   0.6957   0.6959

 MASS FRACTIONS

 *H2              1.00000  1.00000  1.00000  1.00000  1.00000  1.00000  1.00000  1.00000

  * THERMODYNAMIC PROPERTIES FITTED TO 20000.K

 NOTE. WEIGHT FRACTION OF FUEL IN TOTAL FUELS AND OF OXIDANT IN TOTAL OXIDANTS









               THERMODYNAMIC EQUILIBRIUM PROPERTIES AT ASSIGNED

                           TEMPERATURE AND PRESSURE

 CASE =                

             REACTANT                    WT FRACTION      ENERGY      TEMP
                                          (SEE NOTE)     KJ/KG-MOL      K  
 FUEL        H2                           1.0000000         0.000      0.000
 OXIDANT     H2                           1.0000000         0.000      0.000

 O/F=    1.00000  %FUEL= 50.000000  R,EQ.RATIO= 0.000000  PHI,EQ.RATIO=-1.000000

 THERMODYNAMIC PROPERTIES

 P, BAR            350.00   350.00   350.00   350.00   350.00   350.00   350.00   350.00
 T, K             1120.00  1130.00  1140.00  1150.00  1160.00  1170.00  1180.00  1190.00
 RHO, KG/CU M    7.5767 0 7.5097 0 7.4438 0 7.3791 0 7.3154 0 7.2529 0 7.1915 0 7.1310 0
 H, KJ/KG         12068.8  12220.9  12373.2  12525.8  12678.5  12831.5  12984.6  13138.0
 U, KJ/KG         7449.36  7560.24  7671.33  7782.62  7894.12  8005.83  8117.75  8229.88
 G, KJ/KG        -55133.9 -55734.6 -56336.6 -56940.0 -57544.7 -58150.8 -58758.1 -59366.7
 S, KJ/(KG)(K)    60.0024  60.1376  60.2718  60.4050  60.5373  60.6686  60.7989  60.9284

 M, (1/n)           2.016    2.016    2.016    2.016    2.016    2.016    2.016    2.016
 (dLV/dLP)t      -0.99999 -0.99999 -0.99999 -0.99999 -0.99999 -0.99999 -0.99999 -0.99999
 (dLV/dLT)p        1.0000   1.0000   1.0000   1.0000   1.0000   1.0000   1.0000   1.0000
 Cp, KJ/(KG)(K)   15.2029  15.2231  15.2435  15.2641  15.2848  15.3057  15.3268  15.3480
 GAMMAs            1.3723   1.3716   1.3710   1.3703   1.3696   1.3689   1.3682   1.3675
 SON VEL,M/SEC     2517.8   2528.4   2538.9   2549.4   2559.8   2570.2   2580.5   2590.7

 TRANSPORT PROPERTIES (GASES ONLY)
   CONDUCTIVITY IN UNITS OF MILLIWATTS/(CM)(K)

 VISC,MILLIPOISE  0.22258  0.22396  0.22534  0.22671  0.22808  0.22944  0.23080  0.23215

  WITH EQUILIBRIUM REACTIONS

 Cp, KJ/(KG)(K)   15.2029  15.2231  15.2435  15.2641  15.2848  15.3057  15.3268  15.3480
 CONDUCTIVITY      4.8614   4.8969   4.9324   4.9680   5.0036   5.0393   5.0750   5.1107
 PRANDTL NUMBER    0.6961   0.6962   0.6964   0.6966   0.6967   0.6969   0.6970   0.6972

  WITH FROZEN REACTIONS

 Cp, KJ/(KG)(K)   15.2029  15.2231  15.2435  15.2641  15.2848  15.3057  15.3268  15.3480
 CONDUCTIVITY      4.8614   4.8969   4.9324   4.9680   5.0036   5.0393   5.0750   5.1107
 PRANDTL NUMBER    0.6961   0.6962   0.6964   0.6966   0.6967   0.6969   0.6970   0.6972

 MASS FRACTIONS

 *H2              1.00000  1.00000  1.00000  1.00000  1.00000  1.00000  1.00000  1.00000

  * THERMODYNAMIC PROPERTIES FITTED TO 20000.K

 NOTE. WEIGHT FRACTION OF FUEL IN TOTAL FUELS AND OF OXIDANT IN TOTAL OXIDANTS









               THERMODYNAMIC EQUILIBRIUM PROPERTIES AT ASSIGNED

                           TEMPERATURE AND PRESSURE

 CASE =                

             REACTANT                    WT FRACTION      ENERGY      TEMP
                                          (SEE NOTE)     KJ/KG-MOL      K  
 FUEL        H2                           1.0000000         0.000      0.000
 OXIDANT     H2                           1.0000000         0.000      0.000

 O/F=    1.00000  %FUEL= 50.000000  R,EQ.RATIO= 0.000000  PHI,EQ.RATIO=-1.000000

 THERMODYNAMIC PROPERTIES

 P, BAR            350.00   350.00   350.00   350.00   350.00   390.00   390.00   390.00
 T, K             1200.00  1210.00  1220.00  1230.00  1240.00  1100.00  1110.00  1120.00
 RHO, KG/CU M    7.0716 0 7.0132 0 6.9557 0 6.8991 0 6.8435 0 8.5961 0 8.5187 0 8.4426 0
 H, KJ/KG         13291.6  13445.4  13599.4  13753.6  13908.1  11765.1  11916.9  12068.8
 U, KJ/KG         8342.22  8454.78  8567.55  8680.53  8793.73  7228.19  7338.67  7449.36
 G, KJ/KG        -59976.7 -60587.9 -61200.4 -61814.1 -62429.1 -53445.7 -54039.2 -54634.0
 S, KJ/(KG)(K)    61.0569  61.1845  61.3113  61.4372  61.5622  59.2826  59.4198  59.5561

 M, (1/n)           2.016    2.016    2.016    2.016    2.016    2.016    2.016    2.016
 (dLV/dLP)t      -0.99999 -0.99999 -0.99999 -0.99999 -0.99999 -1.00000 -0.99999 -0.99999
 (dLV/dLT)p        1.0000   1.0000   1.0000   1.0000   1.0000   1.0000   1.0000   1.0000
 Cp, KJ/(KG)(K)   15.3693  15.3907  15.4123  15.4339  15.4556  15.1633  15.1830  15.2029
 GAMMAs            1.3668   1.3661   1.3654   1.3647   1.3640   1.3736   1.3730   1.3723
 SON VEL,M/SEC     2600.9   2611.1   2621.2   2631.2   2641.2   2496.4   2507.1   2517.8

 TRANSPORT PROPERTIES (GASES ONLY)
   CONDUCTIVITY IN UNITS OF MILLIWATTS/(CM)(K)

 VISC,MILLIPOISE  0.23350  0.23485  0.23619  0.23753  0.23887  0.21980  0.22120  0.22258

  WITH EQUILIBRIUM REACTIONS

 Cp, KJ/(KG)(K)   15.3693  15.3907  15.4123  15.4339  15.4556  15.1633  15.1830  15.2029
 CONDUCTIVITY      5.1465   5.1823   5.2182   5.2541   5.2900   4.7905   4.8259   4.8614
 PRANDTL NUMBER    0.6973   0.6975   0.6976   0.6978   0.6979   0.6957   0.6959   0.6961

  WITH FROZEN REACTIONS

 Cp, KJ/(KG)(K)   15.3693  15.3907  15.4122  15.4339  15.4556  15.1633  15.1830  15.2029
 CONDUCTIVITY      5.1465   5.1823   5.2182   5.2540   5.2900   4.7905   4.8259   4.8614
 PRANDTL NUMBER    0.6973   0.6975   0.6976   0.6978   0.6979   0.6957   0.6959   0.6961

 MASS FRACTIONS

 *H2              1.00000  1.00000  1.00000  1.00000  1.00000  1.00000  1.00000  1.00000

  * THERMODYNAMIC PROPERTIES FITTED TO 20000.K

 NOTE. WEIGHT FRACTION OF FUEL IN TOTAL FUELS AND OF OXIDANT IN TOTAL OXIDANTS









               THERMODYNAMIC EQUILIBRIUM PROPERTIES AT ASSIGNED

                           TEMPERATURE AND PRESSURE

 CASE =                

             REACTANT                    WT FRACTION      ENERGY      TEMP
                                          (SEE NOTE)     KJ/KG-MOL      K  
 FUEL        H2                           1.0000000         0.000      0.000
 OXIDANT     H2                           1.0000000         0.000      0.000

 O/F=    1.00000  %FUEL= 50.000000  R,EQ.RATIO= 0.000000  PHI,EQ.RATIO=-1.000000

 THERMODYNAMIC PROPERTIES

 P, BAR            390.00   390.00   390.00   390.00   390.00   390.00   390.00   390.00
 T, K             1130.00  1140.00  1150.00  1160.00  1170.00  1180.00  1190.00  1200.00
 RHO, KG/CU M    8.3679 0 8.2945 0 8.2224 0 8.1515 0 8.0818 0 8.0133 0 7.9460 0 7.8798 0
 H, KJ/KG         12220.9  12373.2  12525.8  12678.5  12831.5  12984.6  13138.0  13291.6
 U, KJ/KG         7560.24  7671.33  7782.62  7894.12  8005.83  8117.75  8229.88  8342.22
 G, KJ/KG        -55230.2 -55827.8 -56426.7 -57027.0 -57628.6 -58231.4 -58835.6 -59441.1
 S, KJ/(KG)(K)    59.6913  59.8255  59.9587  60.0910  60.2223  60.3526  60.4820  60.6106

 M, (1/n)           2.016    2.016    2.016    2.016    2.016    2.016    2.016    2.016
 (dLV/dLP)t      -0.99999 -0.99999 -0.99999 -0.99999 -0.99999 -0.99999 -0.99999 -0.99999
 (dLV/dLT)p        1.0000   1.0000   1.0000   1.0000   1.0000   1.0000   1.0000   1.0000
 Cp, KJ/(KG)(K)   15.2231  15.2435  15.2641  15.2848  15.3057  15.3268  15.3480  15.3693
 GAMMAs            1.3716   1.3710   1.3703   1.3696   1.3689   1.3682   1.3675   1.3668
 SON VEL,M/SEC     2528.4   2538.9   2549.4   2559.8   2570.2   2580.5   2590.7   2600.9

 TRANSPORT PROPERTIES (GASES ONLY)
   CONDUCTIVITY IN UNITS OF MILLIWATTS/(CM)(K)

 VISC,MILLIPOISE  0.22396  0.22534  0.22671  0.22808  0.22944  0.23080  0.23215  0.23350

  WITH EQUILIBRIUM REACTIONS

 Cp, KJ/(KG)(K)   15.2231  15.2435  15.2641  15.2848  15.3057  15.3268  15.3480  15.3693
 CONDUCTIVITY      4.8969   4.9324   4.9680   5.0036   5.0393   5.0750   5.1107   5.1465
 PRANDTL NUMBER    0.6962   0.6964   0.6966   0.6967   0.6969   0.6970   0.6972   0.6973

  WITH FROZEN REACTIONS

 Cp, KJ/(KG)(K)   15.2231  15.2435  15.2641  15.2848  15.3057  15.3268  15.3480  15.3693
 CONDUCTIVITY      4.8969   4.9324   4.9680   5.0036   5.0393   5.0750   5.1107   5.1465
 PRANDTL NUMBER    0.6962   0.6964   0.6966   0.6967   0.6969   0.6970   0.6972   0.6973

 MASS FRACTIONS

 *H2              1.00000  1.00000  1.00000  1.00000  1.00000  1.00000  1.00000  1.00000

  * THERMODYNAMIC PROPERTIES FITTED TO 20000.K

 NOTE. WEIGHT FRACTION OF FUEL IN TOTAL FUELS AND OF OXIDANT IN TOTAL OXIDANTS









               THERMODYNAMIC EQUILIBRIUM PROPERTIES AT ASSIGNED

                           TEMPERATURE AND PRESSURE

 CASE =                

             REACTANT                    WT FRACTION      ENERGY      TEMP
                                          (SEE NOTE)     KJ/KG-MOL      K  
 FUEL        H2                           1.0000000         0.000      0.000
 OXIDANT     H2                           1.0000000         0.000      0.000

 O/F=    1.00000  %FUEL= 50.000000  R,EQ.RATIO= 0.000000  PHI,EQ.RATIO=-1.000000

 THERMODYNAMIC PROPERTIES

 P, BAR            390.00   390.00   390.00   390.00   440.00   440.00   440.00   440.00
 T, K             1210.00  1220.00  1230.00  1240.00  1100.00  1110.00  1120.00  1130.00
 RHO, KG/CU M    7.8147 0 7.7506 0 7.6876 0 7.6256 0 9.6982 0 9.6108 0 9.5250 0 9.4407 0
 H, KJ/KG         13445.4  13599.4  13753.6  13908.1  11765.1  11916.9  12068.8  12220.9
 U, KJ/KG         8454.78  8567.55  8680.53  8793.73  7228.19  7338.67  7449.36  7560.24
 G, KJ/KG        -60047.8 -60655.8 -61265.1 -61875.6 -52898.4 -53486.9 -54076.8 -54668.0
 S, KJ/(KG)(K)    60.7382  60.8650  60.9909  61.1159  58.7850  58.9223  59.0585  59.1938

 M, (1/n)           2.016    2.016    2.016    2.016    2.016    2.016    2.016    2.016
 (dLV/dLP)t      -0.99999 -0.99999 -0.99999 -0.99999 -1.00000 -0.99999 -0.99999 -0.99999
 (dLV/dLT)p        1.0000   1.0000   1.0000   1.0000   1.0000   1.0000   1.0000   1.0000
 Cp, KJ/(KG)(K)   15.3907  15.4123  15.4339  15.4556  15.1633  15.1830  15.2029  15.2231
 GAMMAs            1.3661   1.3654   1.3647   1.3640   1.3736   1.3730   1.3723   1.3716
 SON VEL,M/SEC     2611.1   2621.2   2631.2   2641.2   2496.4   2507.1   2517.8   2528.4

 TRANSPORT PROPERTIES (GASES ONLY)
   CONDUCTIVITY IN UNITS OF MILLIWATTS/(CM)(K)

 VISC,MILLIPOISE  0.23485  0.23619  0.23753  0.23887  0.21980  0.22120  0.22258  0.22396

  WITH EQUILIBRIUM REACTIONS

 Cp, KJ/(KG)(K)   15.3907  15.4123  15.4339  15.4556  15.1633  15.1830  15.2029  15.2231
 CONDUCTIVITY      5.1823   5.2182   5.2541   5.2900   4.7905   4.8259   4.8614   4.8969
 PRANDTL NUMBER    0.6975   0.6976   0.6978   0.6979   0.6957   0.6959   0.6961   0.6962

  WITH FROZEN REACTIONS

 Cp, KJ/(KG)(K)   15.3907  15.4122  15.4339  15.4556  15.1633  15.1830  15.2029  15.2231
 CONDUCTIVITY      5.1823   5.2182   5.2540   5.2900   4.7905   4.8259   4.8614   4.8969
 PRANDTL NUMBER    0.6975   0.6976   0.6978   0.6979   0.6957   0.6959   0.6961   0.6962

 MASS FRACTIONS

 *H2              1.00000  1.00000  1.00000  1.00000  1.00000  1.00000  1.00000  1.00000

  * THERMODYNAMIC PROPERTIES FITTED TO 20000.K

 NOTE. WEIGHT FRACTION OF FUEL IN TOTAL FUELS AND OF OXIDANT IN TOTAL OXIDANTS









               THERMODYNAMIC EQUILIBRIUM PROPERTIES AT ASSIGNED

                           TEMPERATURE AND PRESSURE

 CASE =                

             REACTANT                    WT FRACTION      ENERGY      TEMP
                                          (SEE NOTE)     KJ/KG-MOL      K  
 FUEL        H2                           1.0000000         0.000      0.000
 OXIDANT     H2                           1.0000000         0.000      0.000

 O/F=    1.00000  %FUEL= 50.000000  R,EQ.RATIO= 0.000000  PHI,EQ.RATIO=-1.000000

 THERMODYNAMIC PROPERTIES

 P, BAR            440.00   440.00   440.00   440.00   440.00   440.00   440.00   440.00
 T, K             1140.00  1150.00  1160.00  1170.00  1180.00  1190.00  1200.00  1210.00
 RHO, KG/CU M    9.3579 0 9.2765 0 9.1966 0 9.1180 0 9.0407 0 8.9647 0 8.8900 0 8.8165 0
 H, KJ/KG         12373.2  12525.8  12678.5  12831.5  12984.6  13138.0  13291.6  13445.4
 U, KJ/KG         7671.33  7782.62  7894.12  8005.83  8117.75  8229.88  8342.22  8454.78
 G, KJ/KG        -55260.6 -55854.6 -56449.9 -57046.4 -57644.3 -58243.5 -58844.0 -59445.8
 S, KJ/(KG)(K)    59.3280  59.4612  59.5934  59.7247  59.8551  59.9845  60.1130  60.2407

 M, (1/n)           2.016    2.016    2.016    2.016    2.016    2.016    2.016    2.016
 (dLV/dLP)t      -0.99999 -0.99999 -0.99999 -0.99999 -0.99999 -0.99999 -0.99999 -0.99999
 (dLV/dLT)p        1.0000   1.0000   1.0000   1.0000   1.0000   1.0000   1.0000   1.0000
 Cp, KJ/(KG)(K)   15.2435  15.2641  15.2848  15.3057  15.3268  15.3480  15.3693  15.3907
 GAMMAs            1.3710   1.3703   1.3696   1.3689   1.3682   1.3675   1.3668   1.3661
 SON VEL,M/SEC     2538.9   2549.4   2559.8   2570.2   2580.5   2590.7   2600.9   2611.1

 TRANSPORT PROPERTIES (GASES ONLY)
   CONDUCTIVITY IN UNITS OF MILLIWATTS/(CM)(K)

 VISC,MILLIPOISE  0.22534  0.22671  0.22808  0.22944  0.23080  0.23215  0.23350  0.23485

  WITH EQUILIBRIUM REACTIONS

 Cp, KJ/(KG)(K)   15.2435  15.2641  15.2848  15.3057  15.3268  15.3480  15.3693  15.3907
 CONDUCTIVITY      4.9324   4.9680   5.0036   5.0393   5.0750   5.1107   5.1465   5.1823
 PRANDTL NUMBER    0.6964   0.6966   0.6967   0.6969   0.6970   0.6972   0.6973   0.6975

  WITH FROZEN REACTIONS

 Cp, KJ/(KG)(K)   15.2435  15.2641  15.2848  15.3057  15.3268  15.3480  15.3693  15.3907
 CONDUCTIVITY      4.9324   4.9680   5.0036   5.0393   5.0750   5.1107   5.1465   5.1823
 PRANDTL NUMBER    0.6964   0.6966   0.6967   0.6969   0.6970   0.6972   0.6973   0.6975

 MASS FRACTIONS

 *H2              1.00000  1.00000  1.00000  1.00000  1.00000  1.00000  1.00000  1.00000

  * THERMODYNAMIC PROPERTIES FITTED TO 20000.K

 NOTE. WEIGHT FRACTION OF FUEL IN TOTAL FUELS AND OF OXIDANT IN TOTAL OXIDANTS









               THERMODYNAMIC EQUILIBRIUM PROPERTIES AT ASSIGNED

                           TEMPERATURE AND PRESSURE

 CASE =                

             REACTANT                    WT FRACTION      ENERGY      TEMP
                                          (SEE NOTE)     KJ/KG-MOL      K  
 FUEL        H2                           1.0000000         0.000      0.000
 OXIDANT     H2                           1.0000000         0.000      0.000

 O/F=    1.00000  %FUEL= 50.000000  R,EQ.RATIO= 0.000000  PHI,EQ.RATIO=-1.000000

 THERMODYNAMIC PROPERTIES

 P, BAR            440.00   440.00   440.00   490.00   490.00   490.00   490.00   490.00
 T, K             1220.00  1230.00  1240.00  1100.00  1110.00  1120.00  1130.00  1140.00
 RHO, KG/CU M    8.7443 0 8.6732 0 8.6032 0 1.0800 1 1.0703 1 1.0607 1 1.0514 1 1.0421 1
 H, KJ/KG         13599.4  13753.6  13908.1  11765.1  11916.9  12068.8  12220.9  12373.2
 U, KJ/KG         8567.55  8680.53  8793.73  7228.19  7338.67  7449.36  7560.24  7671.33
 G, KJ/KG        -60048.8 -60653.1 -61258.7 -52410.1 -52994.1 -53579.6 -54166.4 -54754.6
 S, KJ/(KG)(K)    60.3674  60.4933  60.6184  58.3411  58.4784  58.6146  58.7498  58.8840

 M, (1/n)           2.016    2.016    2.016    2.016    2.016    2.016    2.016    2.016
 (dLV/dLP)t      -0.99999 -0.99999 -0.99999 -1.00000 -0.99999 -0.99999 -0.99999 -0.99999
 (dLV/dLT)p        1.0000   1.0000   1.0000   1.0000   1.0000   1.0000   1.0000   1.0000
 Cp, KJ/(KG)(K)   15.4123  15.4339  15.4556  15.1633  15.1830  15.2029  15.2231  15.2435
 GAMMAs            1.3654   1.3647   1.3640   1.3736   1.3730   1.3723   1.3716   1.3710
 SON VEL,M/SEC     2621.2   2631.2   2641.2   2496.4   2507.1   2517.8   2528.4   2538.9

 TRANSPORT PROPERTIES (GASES ONLY)
   CONDUCTIVITY IN UNITS OF MILLIWATTS/(CM)(K)

 VISC,MILLIPOISE  0.23619  0.23753  0.23887  0.21980  0.22120  0.22258  0.22396  0.22534

  WITH EQUILIBRIUM REACTIONS

 Cp, KJ/(KG)(K)   15.4123  15.4339  15.4556  15.1633  15.1830  15.2029  15.2231  15.2435
 CONDUCTIVITY      5.2182   5.2541   5.2900   4.7905   4.8259   4.8614   4.8969   4.9324
 PRANDTL NUMBER    0.6976   0.6978   0.6979   0.6957   0.6959   0.6961   0.6962   0.6964

  WITH FROZEN REACTIONS

 Cp, KJ/(KG)(K)   15.4122  15.4339  15.4556  15.1633  15.1830  15.2029  15.2231  15.2435
 CONDUCTIVITY      5.2182   5.2540   5.2900   4.7905   4.8259   4.8614   4.8969   4.9324
 PRANDTL NUMBER    0.6976   0.6978   0.6979   0.6957   0.6959   0.6961   0.6962   0.6964

 MASS FRACTIONS

 *H2              1.00000  1.00000  1.00000  1.00000  1.00000  1.00000  1.00000  1.00000

  * THERMODYNAMIC PROPERTIES FITTED TO 20000.K

 NOTE. WEIGHT FRACTION OF FUEL IN TOTAL FUELS AND OF OXIDANT IN TOTAL OXIDANTS









               THERMODYNAMIC EQUILIBRIUM PROPERTIES AT ASSIGNED

                           TEMPERATURE AND PRESSURE

 CASE =                

             REACTANT                    WT FRACTION      ENERGY      TEMP
                                          (SEE NOTE)     KJ/KG-MOL      K  
 FUEL        H2                           1.0000000         0.000      0.000
 OXIDANT     H2                           1.0000000         0.000      0.000

 O/F=    1.00000  %FUEL= 50.000000  R,EQ.RATIO= 0.000000  PHI,EQ.RATIO=-1.000000

 THERMODYNAMIC PROPERTIES

 P, BAR            490.00   490.00   490.00   490.00   490.00   490.00   490.00   490.00
 T, K             1150.00  1160.00  1170.00  1180.00  1190.00  1200.00  1210.00  1220.00
 RHO, KG/CU M    1.0331 1 1.0242 1 1.0154 1 1.0068 1 9.9834 0 9.9002 0 9.8184 0 9.7379 0
 H, KJ/KG         12525.8  12678.5  12831.5  12984.6  13138.0  13291.6  13445.4  13599.4
 U, KJ/KG         7782.62  7894.12  8005.83  8117.75  8229.88  8342.22  8454.78  8567.55
 G, KJ/KG        -55344.1 -55934.9 -56527.1 -57120.5 -57715.3 -58311.3 -58908.7 -59507.3
 S, KJ/(KG)(K)    59.0173  59.1495  59.2808  59.4111  59.5406  59.6691  59.7967  59.9235

 M, (1/n)           2.016    2.016    2.016    2.016    2.016    2.016    2.016    2.016
 (dLV/dLP)t      -0.99999 -0.99999 -0.99999 -0.99999 -0.99999 -0.99999 -0.99999 -0.99999
 (dLV/dLT)p        1.0000   1.0000   1.0000   1.0000   1.0000   1.0000   1.0000   1.0000
 Cp, KJ/(KG)(K)   15.2641  15.2848  15.3057  15.3268  15.3480  15.3693  15.3907  15.4123
 GAMMAs            1.3703   1.3696   1.3689   1.3682   1.3675   1.3668   1.3661   1.3654
 SON VEL,M/SEC     2549.4   2559.8   2570.2   2580.5   2590.7   2600.9   2611.1   2621.2

 TRANSPORT PROPERTIES (GASES ONLY)
   CONDUCTIVITY IN UNITS OF MILLIWATTS/(CM)(K)

 VISC,MILLIPOISE  0.22671  0.22808  0.22944  0.23080  0.23215  0.23350  0.23485  0.23619

  WITH EQUILIBRIUM REACTIONS

 Cp, KJ/(KG)(K)   15.2641  15.2848  15.3057  15.3268  15.3480  15.3693  15.3907  15.4123
 CONDUCTIVITY      4.9680   5.0036   5.0393   5.0750   5.1107   5.1465   5.1823   5.2182
 PRANDTL NUMBER    0.6966   0.6967   0.6969   0.6970   0.6972   0.6973   0.6975   0.6976

  WITH FROZEN REACTIONS

 Cp, KJ/(KG)(K)   15.2641  15.2848  15.3057  15.3268  15.3480  15.3693  15.3907  15.4122
 CONDUCTIVITY      4.9680   5.0036   5.0393   5.0750   5.1107   5.1465   5.1823   5.2182
 PRANDTL NUMBER    0.6966   0.6967   0.6969   0.6970   0.6972   0.6973   0.6975   0.6976

 MASS FRACTIONS

 *H2              1.00000  1.00000  1.00000  1.00000  1.00000  1.00000  1.00000  1.00000

  * THERMODYNAMIC PROPERTIES FITTED TO 20000.K

 NOTE. WEIGHT FRACTION OF FUEL IN TOTAL FUELS AND OF OXIDANT IN TOTAL OXIDANTS









               THERMODYNAMIC EQUILIBRIUM PROPERTIES AT ASSIGNED

                           TEMPERATURE AND PRESSURE

 CASE =                

             REACTANT                    WT FRACTION      ENERGY      TEMP
                                          (SEE NOTE)     KJ/KG-MOL      K  
 FUEL        H2                           1.0000000         0.000      0.000
 OXIDANT     H2                           1.0000000         0.000      0.000

 O/F=    1.00000  %FUEL= 50.000000  R,EQ.RATIO= 0.000000  PHI,EQ.RATIO=-1.000000

 THERMODYNAMIC PROPERTIES

 P, BAR            490.00   490.00   540.00   540.00   540.00   540.00   540.00   540.00
 T, K             1230.00  1240.00  1100.00  1110.00  1120.00  1130.00  1140.00  1150.00
 RHO, KG/CU M    9.6588 0 9.5809 0 1.1902 1 1.1795 1 1.1690 1 1.1586 1 1.1485 1 1.1385 1
 H, KJ/KG         13753.6  13908.1  11765.1  11916.9  12068.8  12220.9  12373.2  12525.8
 U, KJ/KG         8680.53  8793.73  7228.19  7338.67  7449.36  7560.24  7671.33  7782.62
 G, KJ/KG        -60107.1 -60708.2 -51969.3 -52549.3 -53130.7 -53713.5 -54297.7 -54883.2
 S, KJ/(KG)(K)    60.0494  60.1745  57.9404  58.0776  58.2139  58.3491  58.4833  58.6165

 M, (1/n)           2.016    2.016    2.016    2.016    2.016    2.016    2.016    2.016
 (dLV/dLP)t      -0.99999 -0.99999 -1.00000 -0.99999 -0.99999 -0.99999 -0.99999 -0.99999
 (dLV/dLT)p        1.0000   1.0000   1.0000   1.0000   1.0000   1.0000   1.0000   1.0000
 Cp, KJ/(KG)(K)   15.4339  15.4556  15.1633  15.1830  15.2029  15.2231  15.2435  15.2641
 GAMMAs            1.3647   1.3640   1.3736   1.3730   1.3723   1.3716   1.3710   1.3703
 SON VEL,M/SEC     2631.2   2641.2   2496.4   2507.1   2517.8   2528.4   2538.9   2549.4

 TRANSPORT PROPERTIES (GASES ONLY)
   CONDUCTIVITY IN UNITS OF MILLIWATTS/(CM)(K)

 VISC,MILLIPOISE  0.23753  0.23887  0.21980  0.22120  0.22258  0.22396  0.22534  0.22671

  WITH EQUILIBRIUM REACTIONS

 Cp, KJ/(KG)(K)   15.4339  15.4556  15.1633  15.1830  15.2029  15.2231  15.2435  15.2641
 CONDUCTIVITY      5.2541   5.2900   4.7905   4.8259   4.8614   4.8969   4.9324   4.9680
 PRANDTL NUMBER    0.6978   0.6979   0.6957   0.6959   0.6961   0.6962   0.6964   0.6966

  WITH FROZEN REACTIONS

 Cp, KJ/(KG)(K)   15.4339  15.4556  15.1633  15.1830  15.2029  15.2231  15.2435  15.2641
 CONDUCTIVITY      5.2540   5.2900   4.7905   4.8259   4.8614   4.8969   4.9324   4.9680
 PRANDTL NUMBER    0.6978   0.6979   0.6957   0.6959   0.6961   0.6962   0.6964   0.6966

 MASS FRACTIONS

 *H2              1.00000  1.00000  1.00000  1.00000  1.00000  1.00000  1.00000  1.00000

  * THERMODYNAMIC PROPERTIES FITTED TO 20000.K

 NOTE. WEIGHT FRACTION OF FUEL IN TOTAL FUELS AND OF OXIDANT IN TOTAL OXIDANTS









               THERMODYNAMIC EQUILIBRIUM PROPERTIES AT ASSIGNED

                           TEMPERATURE AND PRESSURE

 CASE =                

             REACTANT                    WT FRACTION      ENERGY      TEMP
                                          (SEE NOTE)     KJ/KG-MOL      K  
 FUEL        H2                           1.0000000         0.000      0.000
 OXIDANT     H2                           1.0000000         0.000      0.000

 O/F=    1.00000  %FUEL= 50.000000  R,EQ.RATIO= 0.000000  PHI,EQ.RATIO=-1.000000

 THERMODYNAMIC PROPERTIES

 P, BAR            540.00   540.00   540.00   540.00   540.00   540.00   540.00   540.00
 T, K             1160.00  1170.00  1180.00  1190.00  1200.00  1210.00  1220.00  1230.00
 RHO, KG/CU M    1.1287 1 1.1190 1 1.1095 1 1.1002 1 1.0910 1 1.0820 1 1.0732 1 1.0644 1
 H, KJ/KG         12678.5  12831.5  12984.6  13138.0  13291.6  13445.4  13599.4  13753.6
 U, KJ/KG         7894.12  8005.83  8117.75  8229.88  8342.22  8454.78  8567.55  8680.53
 G, KJ/KG        -55470.0 -56058.2 -56647.6 -57238.4 -57830.4 -58423.7 -59018.3 -59614.2
 S, KJ/(KG)(K)    58.7488  58.8800  59.0104  59.1398  59.2684  59.3960  59.5227  59.6487

 M, (1/n)           2.016    2.016    2.016    2.016    2.016    2.016    2.016    2.016
 (dLV/dLP)t      -0.99999 -0.99999 -0.99999 -0.99999 -0.99999 -0.99999 -0.99999 -0.99999
 (dLV/dLT)p        1.0000   1.0000   1.0000   1.0000   1.0000   1.0000   1.0000   1.0000
 Cp, KJ/(KG)(K)   15.2848  15.3057  15.3268  15.3480  15.3693  15.3907  15.4123  15.4339
 GAMMAs            1.3696   1.3689   1.3682   1.3675   1.3668   1.3661   1.3654   1.3647
 SON VEL,M/SEC     2559.8   2570.2   2580.5   2590.7   2600.9   2611.1   2621.2   2631.2

 TRANSPORT PROPERTIES (GASES ONLY)
   CONDUCTIVITY IN UNITS OF MILLIWATTS/(CM)(K)

 VISC,MILLIPOISE  0.22808  0.22944  0.23080  0.23215  0.23350  0.23485  0.23619  0.23753

  WITH EQUILIBRIUM REACTIONS

 Cp, KJ/(KG)(K)   15.2848  15.3057  15.3268  15.3480  15.3693  15.3907  15.4123  15.4339
 CONDUCTIVITY      5.0036   5.0393   5.0750   5.1107   5.1465   5.1823   5.2182   5.2541
 PRANDTL NUMBER    0.6967   0.6969   0.6970   0.6972   0.6973   0.6975   0.6976   0.6978

  WITH FROZEN REACTIONS

 Cp, KJ/(KG)(K)   15.2848  15.3057  15.3268  15.3480  15.3693  15.3907  15.4122  15.4339
 CONDUCTIVITY      5.0036   5.0393   5.0750   5.1107   5.1465   5.1823   5.2182   5.2540
 PRANDTL NUMBER    0.6967   0.6969   0.6970   0.6972   0.6973   0.6975   0.6976   0.6978

 MASS FRACTIONS

 *H2              1.00000  1.00000  1.00000  1.00000  1.00000  1.00000  1.00000  1.00000

  * THERMODYNAMIC PROPERTIES FITTED TO 20000.K

 NOTE. WEIGHT FRACTION OF FUEL IN TOTAL FUELS AND OF OXIDANT IN TOTAL OXIDANTS









               THERMODYNAMIC EQUILIBRIUM PROPERTIES AT ASSIGNED

                           TEMPERATURE AND PRESSURE

 CASE =                

             REACTANT                    WT FRACTION      ENERGY      TEMP
                                          (SEE NOTE)     KJ/KG-MOL      K  
 FUEL        H2                           1.0000000         0.000      0.000
 OXIDANT     H2                           1.0000000         0.000      0.000

 O/F=    1.00000  %FUEL= 50.000000  R,EQ.RATIO= 0.000000  PHI,EQ.RATIO=-1.000000

 THERMODYNAMIC PROPERTIES

 P, BAR            540.00   600.00   600.00   600.00   600.00   600.00   600.00   600.00
 T, K             1240.00  1100.00  1110.00  1120.00  1130.00  1140.00  1150.00  1160.00
 RHO, KG/CU M    1.0559 1 1.3225 1 1.3106 1 1.2989 1 1.2874 1 1.2761 1 1.2650 1 1.2541 1
 H, KJ/KG         13908.1  11765.1  11916.9  12068.8  12220.9  12373.2  12525.8  12678.5
 U, KJ/KG         8793.73  7228.19  7338.67  7449.36  7560.24  7671.33  7782.62  7894.12
 G, KJ/KG        -60211.3 -51491.2 -52066.9 -52644.0 -53222.5 -53802.3 -54383.5 -54965.9
 S, KJ/(KG)(K)    59.7737  57.5058  57.6431  57.7793  57.9145  58.0487  58.1819  58.3142

 M, (1/n)           2.016    2.016    2.016    2.016    2.016    2.016    2.016    2.016
 (dLV/dLP)t      -0.99999 -1.00000 -0.99999 -0.99999 -0.99999 -0.99999 -0.99999 -0.99999
 (dLV/dLT)p        1.0000   1.0000   1.0000   1.0000   1.0000   1.0000   1.0000   1.0000
 Cp, KJ/(KG)(K)   15.4556  15.1633  15.1830  15.2029  15.2231  15.2435  15.2641  15.2848
 GAMMAs            1.3640   1.3736   1.3730   1.3723   1.3716   1.3710   1.3703   1.3696
 SON VEL,M/SEC     2641.2   2496.4   2507.1   2517.8   2528.4   2538.9   2549.4   2559.8

 TRANSPORT PROPERTIES (GASES ONLY)
   CONDUCTIVITY IN UNITS OF MILLIWATTS/(CM)(K)

 VISC,MILLIPOISE  0.23887  0.21980  0.22120  0.22258  0.22396  0.22534  0.22671  0.22808

  WITH EQUILIBRIUM REACTIONS

 Cp, KJ/(KG)(K)   15.4556  15.1633  15.1830  15.2029  15.2231  15.2435  15.2641  15.2848
 CONDUCTIVITY      5.2900   4.7905   4.8259   4.8614   4.8969   4.9324   4.9680   5.0036
 PRANDTL NUMBER    0.6979   0.6957   0.6959   0.6961   0.6962   0.6964   0.6966   0.6967

  WITH FROZEN REACTIONS

 Cp, KJ/(KG)(K)   15.4556  15.1633  15.1830  15.2029  15.2231  15.2435  15.2641  15.2848
 CONDUCTIVITY      5.2900   4.7905   4.8259   4.8614   4.8969   4.9324   4.9680   5.0036
 PRANDTL NUMBER    0.6979   0.6957   0.6959   0.6961   0.6962   0.6964   0.6966   0.6967

 MASS FRACTIONS

 *H2              1.00000  1.00000  1.00000  1.00000  1.00000  1.00000  1.00000  1.00000

  * THERMODYNAMIC PROPERTIES FITTED TO 20000.K

 NOTE. WEIGHT FRACTION OF FUEL IN TOTAL FUELS AND OF OXIDANT IN TOTAL OXIDANTS









               THERMODYNAMIC EQUILIBRIUM PROPERTIES AT ASSIGNED

                           TEMPERATURE AND PRESSURE

 CASE =                

             REACTANT                    WT FRACTION      ENERGY      TEMP
                                          (SEE NOTE)     KJ/KG-MOL      K  
 FUEL        H2                           1.0000000         0.000      0.000
 OXIDANT     H2                           1.0000000         0.000      0.000

 O/F=    1.00000  %FUEL= 50.000000  R,EQ.RATIO= 0.000000  PHI,EQ.RATIO=-1.000000

 THERMODYNAMIC PROPERTIES

 P, BAR            600.00   600.00   600.00   600.00   600.00   600.00   600.00   600.00
 T, K             1170.00  1180.00  1190.00  1200.00  1210.00  1220.00  1230.00  1240.00
 RHO, KG/CU M    1.2434 1 1.2328 1 1.2225 1 1.2123 1 1.2023 1 1.1924 1 1.1827 1 1.1732 1
 H, KJ/KG         12831.5  12984.6  13138.0  13291.6  13445.4  13599.4  13753.6  13908.1
 U, KJ/KG         8005.83  8117.75  8229.88  8342.22  8454.77  8567.55  8680.53  8793.73
 G, KJ/KG        -55549.7 -56134.8 -56721.3 -57309.0 -57897.9 -58488.2 -59079.7 -59672.5
 S, KJ/(KG)(K)    58.4455  58.5758  58.7053  58.8338  58.9614  59.0882  59.2141  59.3392

 M, (1/n)           2.016    2.016    2.016    2.016    2.016    2.016    2.016    2.016
 (dLV/dLP)t      -0.99999 -0.99999 -0.99999 -0.99999 -0.99999 -0.99999 -0.99999 -0.99999
 (dLV/dLT)p        1.0000   1.0000   1.0000   1.0000   1.0000   1.0000   1.0000   1.0000
 Cp, KJ/(KG)(K)   15.3057  15.3268  15.3480  15.3693  15.3907  15.4123  15.4339  15.4556
 GAMMAs            1.3689   1.3682   1.3675   1.3668   1.3661   1.3654   1.3647   1.3640
 SON VEL,M/SEC     2570.2   2580.5   2590.7   2600.9   2611.1   2621.2   2631.2   2641.2

 TRANSPORT PROPERTIES (GASES ONLY)
   CONDUCTIVITY IN UNITS OF MILLIWATTS/(CM)(K)

 VISC,MILLIPOISE  0.22944  0.23080  0.23215  0.23350  0.23485  0.23619  0.23753  0.23887

  WITH EQUILIBRIUM REACTIONS

 Cp, KJ/(KG)(K)   15.3057  15.3268  15.3480  15.3693  15.3907  15.4123  15.4339  15.4556
 CONDUCTIVITY      5.0393   5.0750   5.1107   5.1465   5.1823   5.2182   5.2541   5.2900
 PRANDTL NUMBER    0.6969   0.6970   0.6972   0.6973   0.6975   0.6976   0.6978   0.6979

  WITH FROZEN REACTIONS

 Cp, KJ/(KG)(K)   15.3057  15.3268  15.3480  15.3693  15.3907  15.4122  15.4339  15.4556
 CONDUCTIVITY      5.0393   5.0750   5.1107   5.1465   5.1823   5.2182   5.2540   5.2900
 PRANDTL NUMBER    0.6969   0.6970   0.6972   0.6973   0.6975   0.6976   0.6978   0.6979

 MASS FRACTIONS

 *H2              1.00000  1.00000  1.00000  1.00000  1.00000  1.00000  1.00000  1.00000

  * THERMODYNAMIC PROPERTIES FITTED TO 20000.K

 NOTE. WEIGHT FRACTION OF FUEL IN TOTAL FUELS AND OF OXIDANT IN TOTAL OXIDANTS









               THERMODYNAMIC EQUILIBRIUM PROPERTIES AT ASSIGNED

                           TEMPERATURE AND PRESSURE

 CASE =                

             REACTANT                    WT FRACTION      ENERGY      TEMP
                                          (SEE NOTE)     KJ/KG-MOL      K  
 FUEL        H2                           1.0000000         0.000      0.000
 OXIDANT     H2                           1.0000000         0.000      0.000

 O/F=    1.00000  %FUEL= 50.000000  R,EQ.RATIO= 0.000000  PHI,EQ.RATIO=-1.000000

 THERMODYNAMIC PROPERTIES

 P, BAR            670.00   670.00   670.00   670.00   670.00   670.00   670.00   670.00
 T, K             1100.00  1110.00  1120.00  1130.00  1140.00  1150.00  1160.00  1170.00
 RHO, KG/CU M    1.4768 1 1.4635 1 1.4504 1 1.4376 1 1.4250 1 1.4126 1 1.4004 1 1.3884 1
 H, KJ/KG         11765.1  11916.9  12068.8  12220.9  12373.2  12525.8  12678.5  12831.5
 U, KJ/KG         7228.19  7338.67  7449.36  7560.24  7671.33  7782.62  7894.12  8005.83
 G, KJ/KG        -50990.6 -51561.7 -52134.3 -52708.2 -53283.5 -53860.1 -54438.0 -55017.2
 S, KJ/(KG)(K)    57.0507  57.1879  57.3242  57.4594  57.5936  57.7268  57.8591  57.9904

 M, (1/n)           2.016    2.016    2.016    2.016    2.016    2.016    2.016    2.016
 (dLV/dLP)t      -1.00000 -0.99999 -0.99999 -0.99999 -0.99999 -0.99999 -0.99999 -0.99999
 (dLV/dLT)p        1.0000   1.0000   1.0000   1.0000   1.0000   1.0000   1.0000   1.0000
 Cp, KJ/(KG)(K)   15.1633  15.1830  15.2029  15.2231  15.2435  15.2641  15.2848  15.3057
 GAMMAs            1.3736   1.3730   1.3723   1.3716   1.3710   1.3703   1.3696   1.3689
 SON VEL,M/SEC     2496.4   2507.1   2517.8   2528.4   2538.9   2549.4   2559.8   2570.2

 TRANSPORT PROPERTIES (GASES ONLY)
   CONDUCTIVITY IN UNITS OF MILLIWATTS/(CM)(K)

 VISC,MILLIPOISE  0.21980  0.22120  0.22258  0.22396  0.22534  0.22671  0.22808  0.22944

  WITH EQUILIBRIUM REACTIONS

 Cp, KJ/(KG)(K)   15.1633  15.1830  15.2029  15.2231  15.2435  15.2641  15.2848  15.3057
 CONDUCTIVITY      4.7905   4.8259   4.8614   4.8969   4.9324   4.9680   5.0036   5.0393
 PRANDTL NUMBER    0.6957   0.6959   0.6961   0.6962   0.6964   0.6966   0.6967   0.6969

  WITH FROZEN REACTIONS

 Cp, KJ/(KG)(K)   15.1633  15.1830  15.2029  15.2231  15.2435  15.2641  15.2848  15.3057
 CONDUCTIVITY      4.7905   4.8259   4.8614   4.8969   4.9324   4.9680   5.0036   5.0393
 PRANDTL NUMBER    0.6957   0.6959   0.6961   0.6962   0.6964   0.6966   0.6967   0.6969

 MASS FRACTIONS

 *H2              1.00000  1.00000  1.00000  1.00000  1.00000  1.00000  1.00000  1.00000

  * THERMODYNAMIC PROPERTIES FITTED TO 20000.K

 NOTE. WEIGHT FRACTION OF FUEL IN TOTAL FUELS AND OF OXIDANT IN TOTAL OXIDANTS









               THERMODYNAMIC EQUILIBRIUM PROPERTIES AT ASSIGNED

                           TEMPERATURE AND PRESSURE

 CASE =                

             REACTANT                    WT FRACTION      ENERGY      TEMP
                                          (SEE NOTE)     KJ/KG-MOL      K  
 FUEL        H2                           1.0000000         0.000      0.000
 OXIDANT     H2                           1.0000000         0.000      0.000

 O/F=    1.00000  %FUEL= 50.000000  R,EQ.RATIO= 0.000000  PHI,EQ.RATIO=-1.000000

 THERMODYNAMIC PROPERTIES

 P, BAR            670.00   670.00   670.00   670.00   670.00   670.00   670.00   740.00
 T, K             1180.00  1190.00  1200.00  1210.00  1220.00  1230.00  1240.00  1100.00
 RHO, KG/CU M    1.3766 1 1.3651 1 1.3537 1 1.3425 1 1.3315 1 1.3207 1 1.3100 1 1.6311 1
 H, KJ/KG         12984.6  13138.0  13291.6  13445.4  13599.4  13753.6  13908.1  11765.1
 U, KJ/KG         8117.75  8229.88  8342.22  8454.77  8567.55  8680.53  8793.73  7228.19
 G, KJ/KG        -55597.8 -56179.6 -56762.8 -57347.2 -57932.9 -58519.9 -59108.1 -50539.7
 S, KJ/(KG)(K)    58.1207  58.2501  58.3787  58.5063  58.6331  58.7590  58.8840  56.6408

 M, (1/n)           2.016    2.016    2.016    2.016    2.016    2.016    2.016    2.016
 (dLV/dLP)t      -0.99999 -0.99999 -0.99999 -0.99999 -0.99999 -0.99999 -0.99999 -1.00000
 (dLV/dLT)p        1.0000   1.0000   1.0000   1.0000   1.0000   1.0000   1.0000   1.0000
 Cp, KJ/(KG)(K)   15.3268  15.3480  15.3693  15.3907  15.4123  15.4339  15.4556  15.1633
 GAMMAs            1.3682   1.3675   1.3668   1.3661   1.3654   1.3647   1.3640   1.3736
 SON VEL,M/SEC     2580.5   2590.7   2600.9   2611.1   2621.2   2631.2   2641.2   2496.4

 TRANSPORT PROPERTIES (GASES ONLY)
   CONDUCTIVITY IN UNITS OF MILLIWATTS/(CM)(K)

 VISC,MILLIPOISE  0.23080  0.23215  0.23350  0.23485  0.23619  0.23753  0.23887  0.21980

  WITH EQUILIBRIUM REACTIONS

 Cp, KJ/(KG)(K)   15.3268  15.3480  15.3693  15.3907  15.4123  15.4339  15.4556  15.1633
 CONDUCTIVITY      5.0750   5.1107   5.1465   5.1823   5.2182   5.2541   5.2900   4.7905
 PRANDTL NUMBER    0.6970   0.6972   0.6973   0.6975   0.6976   0.6978   0.6979   0.6957

  WITH FROZEN REACTIONS

 Cp, KJ/(KG)(K)   15.3268  15.3480  15.3693  15.3907  15.4122  15.4339  15.4556  15.1633
 CONDUCTIVITY      5.0750   5.1107   5.1465   5.1823   5.2182   5.2540   5.2900   4.7905
 PRANDTL NUMBER    0.6970   0.6972   0.6973   0.6975   0.6976   0.6978   0.6979   0.6957

 MASS FRACTIONS

 *H2              1.00000  1.00000  1.00000  1.00000  1.00000  1.00000  1.00000  1.00000

  * THERMODYNAMIC PROPERTIES FITTED TO 20000.K

 NOTE. WEIGHT FRACTION OF FUEL IN TOTAL FUELS AND OF OXIDANT IN TOTAL OXIDANTS









               THERMODYNAMIC EQUILIBRIUM PROPERTIES AT ASSIGNED

                           TEMPERATURE AND PRESSURE

 CASE =                

             REACTANT                    WT FRACTION      ENERGY      TEMP
                                          (SEE NOTE)     KJ/KG-MOL      K  
 FUEL        H2                           1.0000000         0.000      0.000
 OXIDANT     H2                           1.0000000         0.000      0.000

 O/F=    1.00000  %FUEL= 50.000000  R,EQ.RATIO= 0.000000  PHI,EQ.RATIO=-1.000000

 THERMODYNAMIC PROPERTIES

 P, BAR            740.00   740.00   740.00   740.00   740.00   740.00   740.00   740.00
 T, K             1110.00  1120.00  1130.00  1140.00  1150.00  1160.00  1170.00  1180.00
 RHO, KG/CU M    1.6164 1 1.6019 1 1.5878 1 1.5738 1 1.5601 1 1.5467 1 1.5335 1 1.5205 1
 H, KJ/KG         11916.9  12068.8  12220.9  12373.2  12525.8  12678.5  12831.5  12984.6
 U, KJ/KG         7338.67  7449.36  7560.24  7671.33  7782.62  7894.12  8005.83  8117.75
 G, KJ/KG        -51106.8 -51675.2 -52245.1 -52816.2 -53388.7 -53962.6 -54537.7 -55114.2
 S, KJ/(KG)(K)    56.7781  56.9143  57.0495  57.1837  57.3170  57.4492  57.5805  57.7108

 M, (1/n)           2.016    2.016    2.016    2.016    2.016    2.016    2.016    2.016
 (dLV/dLP)t      -0.99999 -0.99999 -0.99999 -0.99999 -0.99999 -0.99999 -0.99999 -0.99999
 (dLV/dLT)p        1.0000   1.0000   1.0000   1.0000   1.0000   1.0000   1.0000   1.0000
 Cp, KJ/(KG)(K)   15.1830  15.2029  15.2231  15.2435  15.2641  15.2848  15.3057  15.3268
 GAMMAs            1.3730   1.3723   1.3716   1.3710   1.3703   1.3696   1.3689   1.3682
 SON VEL,M/SEC     2507.1   2517.8   2528.4   2538.9   2549.4   2559.8   2570.2   2580.5

 TRANSPORT PROPERTIES (GASES ONLY)
   CONDUCTIVITY IN UNITS OF MILLIWATTS/(CM)(K)

 VISC,MILLIPOISE  0.22120  0.22258  0.22396  0.22534  0.22671  0.22808  0.22944  0.23080

  WITH EQUILIBRIUM REACTIONS

 Cp, KJ/(KG)(K)   15.1830  15.2029  15.2231  15.2435  15.2641  15.2848  15.3057  15.3268
 CONDUCTIVITY      4.8259   4.8614   4.8969   4.9324   4.9680   5.0036   5.0393   5.0750
 PRANDTL NUMBER    0.6959   0.6961   0.6962   0.6964   0.6966   0.6967   0.6969   0.6970

  WITH FROZEN REACTIONS

 Cp, KJ/(KG)(K)   15.1830  15.2029  15.2231  15.2435  15.2641  15.2848  15.3057  15.3268
 CONDUCTIVITY      4.8259   4.8614   4.8969   4.9324   4.9680   5.0036   5.0393   5.0750
 PRANDTL NUMBER    0.6959   0.6961   0.6962   0.6964   0.6966   0.6967   0.6969   0.6970

 MASS FRACTIONS

 *H2              1.00000  1.00000  1.00000  1.00000  1.00000  1.00000  1.00000  1.00000

  * THERMODYNAMIC PROPERTIES FITTED TO 20000.K

 NOTE. WEIGHT FRACTION OF FUEL IN TOTAL FUELS AND OF OXIDANT IN TOTAL OXIDANTS









               THERMODYNAMIC EQUILIBRIUM PROPERTIES AT ASSIGNED

                           TEMPERATURE AND PRESSURE

 CASE =                

             REACTANT                    WT FRACTION      ENERGY      TEMP
                                          (SEE NOTE)     KJ/KG-MOL      K  
 FUEL        H2                           1.0000000         0.000      0.000
 OXIDANT     H2                           1.0000000         0.000      0.000

 O/F=    1.00000  %FUEL= 50.000000  R,EQ.RATIO= 0.000000  PHI,EQ.RATIO=-1.000000

 THERMODYNAMIC PROPERTIES

 P, BAR            740.00   740.00   740.00   740.00   740.00   740.00   825.00   825.00
 T, K             1190.00  1200.00  1210.00  1220.00  1230.00  1240.00  1100.00  1110.00
 RHO, KG/CU M    1.5077 1 1.4951 1 1.4828 1 1.4706 1 1.4587 1 1.4469 1 1.8184 1 1.8020 1
 H, KJ/KG         13138.0  13291.6  13445.4  13599.4  13753.6  13908.1  11765.1  11916.9
 U, KJ/KG         8229.88  8342.22  8454.77  8567.54  8680.53  8793.73  7228.19  7338.67
 G, KJ/KG        -55691.9 -56271.0 -56851.3 -57432.9 -58015.7 -58599.9 -50046.4 -50609.0
 S, KJ/(KG)(K)    57.8403  57.9688  58.0964  58.2232  58.3491  58.4742  56.1923  56.3296

 M, (1/n)           2.016    2.016    2.016    2.016    2.016    2.016    2.016    2.016
 (dLV/dLP)t      -0.99999 -0.99999 -0.99999 -0.99999 -0.99999 -0.99999 -1.00000 -0.99999
 (dLV/dLT)p        1.0000   1.0000   1.0000   1.0000   1.0000   1.0000   1.0000   1.0000
 Cp, KJ/(KG)(K)   15.3480  15.3693  15.3907  15.4123  15.4339  15.4556  15.1633  15.1830
 GAMMAs            1.3675   1.3668   1.3661   1.3654   1.3647   1.3640   1.3736   1.3730
 SON VEL,M/SEC     2590.7   2600.9   2611.1   2621.2   2631.2   2641.2   2496.4   2507.1

 TRANSPORT PROPERTIES (GASES ONLY)
   CONDUCTIVITY IN UNITS OF MILLIWATTS/(CM)(K)

 VISC,MILLIPOISE  0.23215  0.23350  0.23485  0.23619  0.23753  0.23887  0.21980  0.22120

  WITH EQUILIBRIUM REACTIONS

 Cp, KJ/(KG)(K)   15.3480  15.3693  15.3907  15.4123  15.4339  15.4556  15.1633  15.1830
 CONDUCTIVITY      5.1107   5.1465   5.1823   5.2182   5.2541   5.2900   4.7905   4.8259
 PRANDTL NUMBER    0.6972   0.6973   0.6975   0.6976   0.6978   0.6979   0.6957   0.6959

  WITH FROZEN REACTIONS

 Cp, KJ/(KG)(K)   15.3480  15.3693  15.3907  15.4122  15.4339  15.4556  15.1633  15.1830
 CONDUCTIVITY      5.1107   5.1465   5.1823   5.2182   5.2540   5.2900   4.7905   4.8259
 PRANDTL NUMBER    0.6972   0.6973   0.6975   0.6976   0.6978   0.6979   0.6957   0.6959

 MASS FRACTIONS

 *H2              1.00000  1.00000  1.00000  1.00000  1.00000  1.00000  1.00000  1.00000

  * THERMODYNAMIC PROPERTIES FITTED TO 20000.K

 NOTE. WEIGHT FRACTION OF FUEL IN TOTAL FUELS AND OF OXIDANT IN TOTAL OXIDANTS









               THERMODYNAMIC EQUILIBRIUM PROPERTIES AT ASSIGNED

                           TEMPERATURE AND PRESSURE

 CASE =                

             REACTANT                    WT FRACTION      ENERGY      TEMP
                                          (SEE NOTE)     KJ/KG-MOL      K  
 FUEL        H2                           1.0000000         0.000      0.000
 OXIDANT     H2                           1.0000000         0.000      0.000

 O/F=    1.00000  %FUEL= 50.000000  R,EQ.RATIO= 0.000000  PHI,EQ.RATIO=-1.000000

 THERMODYNAMIC PROPERTIES

 P, BAR            825.00   825.00   825.00   825.00   825.00   825.00   825.00   825.00
 T, K             1120.00  1130.00  1140.00  1150.00  1160.00  1170.00  1180.00  1190.00
 RHO, KG/CU M    1.7859 1 1.7701 1 1.7546 1 1.7393 1 1.7244 1 1.7096 1 1.6951 1 1.6809 1
 H, KJ/KG         12068.8  12220.9  12373.2  12525.8  12678.5  12831.5  12984.6  13138.0
 U, KJ/KG         7449.36  7560.24  7671.33  7782.62  7894.12  8005.83  8117.75  8229.88
 G, KJ/KG        -51173.0 -51738.3 -52305.0 -52873.0 -53442.3 -54013.0 -54585.0 -55158.2
 S, KJ/(KG)(K)    56.4658  56.6011  56.7353  56.8685  57.0007  57.1320  57.2624  57.3918

 M, (1/n)           2.016    2.016    2.016    2.016    2.016    2.016    2.016    2.016
 (dLV/dLP)t      -0.99999 -0.99999 -0.99999 -0.99999 -0.99999 -0.99999 -0.99999 -0.99999
 (dLV/dLT)p        1.0000   1.0000   1.0000   1.0000   1.0000   1.0000   1.0000   1.0000
 Cp, KJ/(KG)(K)   15.2029  15.2231  15.2435  15.2641  15.2848  15.3057  15.3268  15.3480
 GAMMAs            1.3723   1.3716   1.3710   1.3703   1.3696   1.3689   1.3682   1.3675
 SON VEL,M/SEC     2517.8   2528.4   2538.9   2549.4   2559.8   2570.2   2580.5   2590.7

 TRANSPORT PROPERTIES (GASES ONLY)
   CONDUCTIVITY IN UNITS OF MILLIWATTS/(CM)(K)

 VISC,MILLIPOISE  0.22258  0.22396  0.22534  0.22671  0.22808  0.22944  0.23080  0.23215

  WITH EQUILIBRIUM REACTIONS

 Cp, KJ/(KG)(K)   15.2029  15.2231  15.2435  15.2641  15.2848  15.3057  15.3268  15.3480
 CONDUCTIVITY      4.8614   4.8969   4.9324   4.9680   5.0036   5.0393   5.0750   5.1107
 PRANDTL NUMBER    0.6961   0.6962   0.6964   0.6966   0.6967   0.6969   0.6970   0.6972

  WITH FROZEN REACTIONS

 Cp, KJ/(KG)(K)   15.2029  15.2231  15.2435  15.2641  15.2848  15.3057  15.3268  15.3480
 CONDUCTIVITY      4.8614   4.8969   4.9324   4.9680   5.0036   5.0393   5.0750   5.1107
 PRANDTL NUMBER    0.6961   0.6962   0.6964   0.6966   0.6967   0.6969   0.6970   0.6972

 MASS FRACTIONS

 *H2              1.00000  1.00000  1.00000  1.00000  1.00000  1.00000  1.00000  1.00000

  * THERMODYNAMIC PROPERTIES FITTED TO 20000.K

 NOTE. WEIGHT FRACTION OF FUEL IN TOTAL FUELS AND OF OXIDANT IN TOTAL OXIDANTS









               THERMODYNAMIC EQUILIBRIUM PROPERTIES AT ASSIGNED

                           TEMPERATURE AND PRESSURE

 CASE =                

             REACTANT                    WT FRACTION      ENERGY      TEMP
                                          (SEE NOTE)     KJ/KG-MOL      K  
 FUEL        H2                           1.0000000         0.000      0.000
 OXIDANT     H2                           1.0000000         0.000      0.000

 O/F=    1.00000  %FUEL= 50.000000  R,EQ.RATIO= 0.000000  PHI,EQ.RATIO=-1.000000

 THERMODYNAMIC PROPERTIES

 P, BAR            825.00   825.00   825.00   825.00   825.00   910.00   910.00   910.00
 T, K             1200.00  1210.00  1220.00  1230.00  1240.00  1100.00  1110.00  1120.00
 RHO, KG/CU M    1.6669 1 1.6531 1 1.6395 1 1.6262 1 1.6131 1 2.0058 1 1.9877 1 1.9699 1
 H, KJ/KG         13291.6  13445.4  13599.4  13753.6  13908.1  11765.1  11916.9  12068.8
 U, KJ/KG         8342.22  8454.77  8567.54  8680.53  8793.73  7228.19  7338.67  7449.36
 G, KJ/KG        -55732.8 -56308.6 -56885.8 -57464.1 -58043.8 -49601.5 -50160.0 -50720.0
 S, KJ/(KG)(K)    57.5203  57.6480  57.7747  57.9006  58.0257  55.7879  55.9251  56.0614

 M, (1/n)           2.016    2.016    2.016    2.016    2.016    2.016    2.016    2.016
 (dLV/dLP)t      -0.99999 -0.99999 -0.99999 -0.99999 -0.99999 -1.00000 -0.99999 -0.99999
 (dLV/dLT)p        1.0000   1.0000   1.0000   1.0000   1.0000   1.0000   1.0000   1.0000
 Cp, KJ/(KG)(K)   15.3693  15.3907  15.4122  15.4339  15.4556  15.1633  15.1830  15.2029
 GAMMAs            1.3668   1.3661   1.3654   1.3647   1.3640   1.3736   1.3730   1.3723
 SON VEL,M/SEC     2600.9   2611.1   2621.2   2631.2   2641.2   2496.4   2507.1   2517.8

 TRANSPORT PROPERTIES (GASES ONLY)
   CONDUCTIVITY IN UNITS OF MILLIWATTS/(CM)(K)

 VISC,MILLIPOISE  0.23350  0.23485  0.23619  0.23753  0.23887  0.21980  0.22120  0.22258

  WITH EQUILIBRIUM REACTIONS

 Cp, KJ/(KG)(K)   15.3693  15.3907  15.4123  15.4339  15.4556  15.1633  15.1830  15.2029
 CONDUCTIVITY      5.1465   5.1823   5.2182   5.2541   5.2900   4.7905   4.8259   4.8614
 PRANDTL NUMBER    0.6973   0.6975   0.6976   0.6978   0.6979   0.6957   0.6959   0.6961

  WITH FROZEN REACTIONS

 Cp, KJ/(KG)(K)   15.3693  15.3907  15.4122  15.4339  15.4556  15.1633  15.1830  15.2029
 CONDUCTIVITY      5.1465   5.1823   5.2182   5.2540   5.2900   4.7905   4.8259   4.8614
 PRANDTL NUMBER    0.6973   0.6975   0.6976   0.6978   0.6979   0.6957   0.6959   0.6961

 MASS FRACTIONS

 *H2              1.00000  1.00000  1.00000  1.00000  1.00000  1.00000  1.00000  1.00000

  * THERMODYNAMIC PROPERTIES FITTED TO 20000.K

 NOTE. WEIGHT FRACTION OF FUEL IN TOTAL FUELS AND OF OXIDANT IN TOTAL OXIDANTS









               THERMODYNAMIC EQUILIBRIUM PROPERTIES AT ASSIGNED

                           TEMPERATURE AND PRESSURE

 CASE =                

             REACTANT                    WT FRACTION      ENERGY      TEMP
                                          (SEE NOTE)     KJ/KG-MOL      K  
 FUEL        H2                           1.0000000         0.000      0.000
 OXIDANT     H2                           1.0000000         0.000      0.000

 O/F=    1.00000  %FUEL= 50.000000  R,EQ.RATIO= 0.000000  PHI,EQ.RATIO=-1.000000

 THERMODYNAMIC PROPERTIES

 P, BAR            910.00   910.00   910.00   910.00   910.00   910.00   910.00   910.00
 T, K             1130.00  1140.00  1150.00  1160.00  1170.00  1180.00  1190.00  1200.00
 RHO, KG/CU M    1.9525 1 1.9354 1 1.9186 1 1.9020 1 1.8858 1 1.8698 1 1.8541 1 1.8386 1
 H, KJ/KG         12220.9  12373.2  12525.8  12678.5  12831.5  12984.6  13138.0  13291.6
 U, KJ/KG         7560.24  7671.33  7782.62  7894.12  8005.83  8117.75  8229.88  8342.22
 G, KJ/KG        -51281.2 -51843.9 -52407.9 -52973.2 -53539.8 -54107.7 -54676.9 -55247.4
 S, KJ/(KG)(K)    56.1966  56.3308  56.4640  56.5963  56.7276  56.8579  56.9873  57.1159

 M, (1/n)           2.016    2.016    2.016    2.016    2.016    2.016    2.016    2.016
 (dLV/dLP)t      -0.99999 -0.99999 -0.99999 -0.99999 -0.99999 -0.99999 -0.99999 -0.99999
 (dLV/dLT)p        1.0000   1.0000   1.0000   1.0000   1.0000   1.0000   1.0000   1.0000
 Cp, KJ/(KG)(K)   15.2231  15.2435  15.2641  15.2848  15.3057  15.3268  15.3480  15.3693
 GAMMAs            1.3716   1.3710   1.3703   1.3696   1.3689   1.3682   1.3675   1.3668
 SON VEL,M/SEC     2528.4   2538.9   2549.4   2559.8   2570.2   2580.5   2590.7   2600.9

 TRANSPORT PROPERTIES (GASES ONLY)
   CONDUCTIVITY IN UNITS OF MILLIWATTS/(CM)(K)

 VISC,MILLIPOISE  0.22396  0.22534  0.22671  0.22808  0.22944  0.23080  0.23215  0.23350

  WITH EQUILIBRIUM REACTIONS

 Cp, KJ/(KG)(K)   15.2231  15.2435  15.2641  15.2848  15.3057  15.3268  15.3480  15.3693
 CONDUCTIVITY      4.8969   4.9324   4.9680   5.0036   5.0393   5.0750   5.1107   5.1465
 PRANDTL NUMBER    0.6962   0.6964   0.6966   0.6967   0.6969   0.6970   0.6972   0.6973

  WITH FROZEN REACTIONS

 Cp, KJ/(KG)(K)   15.2231  15.2435  15.2641  15.2848  15.3057  15.3268  15.3480  15.3693
 CONDUCTIVITY      4.8969   4.9324   4.9680   5.0036   5.0393   5.0750   5.1107   5.1465
 PRANDTL NUMBER    0.6962   0.6964   0.6966   0.6967   0.6969   0.6970   0.6972   0.6973

 MASS FRACTIONS

 *H2              1.00000  1.00000  1.00000  1.00000  1.00000  1.00000  1.00000  1.00000

  * THERMODYNAMIC PROPERTIES FITTED TO 20000.K

 NOTE. WEIGHT FRACTION OF FUEL IN TOTAL FUELS AND OF OXIDANT IN TOTAL OXIDANTS









               THERMODYNAMIC EQUILIBRIUM PROPERTIES AT ASSIGNED

                           TEMPERATURE AND PRESSURE

 CASE =                

             REACTANT                    WT FRACTION      ENERGY      TEMP
                                          (SEE NOTE)     KJ/KG-MOL      K  
 FUEL        H2                           1.0000000         0.000      0.000
 OXIDANT     H2                           1.0000000         0.000      0.000

 O/F=    1.00000  %FUEL= 50.000000  R,EQ.RATIO= 0.000000  PHI,EQ.RATIO=-1.000000

 THERMODYNAMIC PROPERTIES

 P, BAR            910.00   910.00   910.00   910.00
 T, K             1210.00  1220.00  1230.00  1240.00
 RHO, KG/CU M    1.8234 1 1.8085 1 1.7938 1 1.7793 1
 H, KJ/KG         13445.4  13599.4  13753.6  13908.1
 U, KJ/KG         8454.77  8567.54  8680.53  8793.73
 G, KJ/KG        -55819.2 -56392.3 -56966.6 -57542.2
 S, KJ/(KG)(K)    57.2435  57.3703  57.4962  57.6212

 M, (1/n)           2.016    2.016    2.016    2.016
 (dLV/dLP)t      -0.99999 -0.99999 -0.99999 -0.99999
 (dLV/dLT)p        1.0000   1.0000   1.0000   1.0000
 Cp, KJ/(KG)(K)   15.3907  15.4122  15.4339  15.4556
 GAMMAs            1.3661   1.3654   1.3647   1.3640
 SON VEL,M/SEC     2611.1   2621.2   2631.2   2641.2

 TRANSPORT PROPERTIES (GASES ONLY)
   CONDUCTIVITY IN UNITS OF MILLIWATTS/(CM)(K)

 VISC,MILLIPOISE  0.23485  0.23619  0.23753  0.23887

  WITH EQUILIBRIUM REACTIONS

 Cp, KJ/(KG)(K)   15.3907  15.4123  15.4339  15.4556
 CONDUCTIVITY      5.1823   5.2182   5.2541   5.2900
 PRANDTL NUMBER    0.6975   0.6976   0.6978   0.6979

  WITH FROZEN REACTIONS

 Cp, KJ/(KG)(K)   15.3907  15.4122  15.4339  15.4556
 CONDUCTIVITY      5.1823   5.2182   5.2540   5.2900
 PRANDTL NUMBER    0.6975   0.6976   0.6978   0.6979

 MASS FRACTIONS

 *H2              1.00000  1.00000  1.00000  1.00000

  * THERMODYNAMIC PROPERTIES FITTED TO 20000.K

 NOTE. WEIGHT FRACTION OF FUEL IN TOTAL FUELS AND OF OXIDANT IN TOTAL OXIDANTS



  
