
 *******************************************************************************

         NASA-GLENN CHEMICAL EQUILIBRIUM PROGRAM CEA2, MAY 21, 2004
                   BY  BONNIE MCBRIDE AND SANFORD GORDON
      REFS: NASA RP-1311, PART I, 1994 AND NASA RP-1311, PART II, 1996

 *******************************************************************************



  prob tp ions
  p,bar= 0.11,0.12,0.132,0.148,0.165,0.18,0.2,0.225,0.25,0.28,0.31,0.35,0.39,0.44
 ,0.49
  t,k= 2150,2160,2170,2180,2190,2200,2210,2220,2230,2240,2250,2260,2270,2280,2290
  
  
  reac
  fuel H2                wt%=100.0000
  oxid H2                wt%=100.0000
  
  output short
  
  output massf
  
  output siunits
  
  output transport
  
 end





               THERMODYNAMIC EQUILIBRIUM PROPERTIES AT ASSIGNED

                           TEMPERATURE AND PRESSURE

 CASE =                

             REACTANT                    WT FRACTION      ENERGY      TEMP
                                          (SEE NOTE)     KJ/KG-MOL      K  
 FUEL        H2                           1.0000000         0.000      0.000
 OXIDANT     H2                           1.0000000         0.000      0.000

 O/F=    1.00000  %FUEL= 50.000000  R,EQ.RATIO= 0.000000  PHI,EQ.RATIO=-1.000000

 THERMODYNAMIC PROPERTIES

 P, BAR           0.11000  0.11000  0.11000  0.11000  0.11000  0.11000  0.11000  0.11000
 T, K             2150.00  2160.00  2170.00  2180.00  2190.00  2200.00  2210.00  2220.00
 RHO, KG/CU M    1.2326-3 1.2264-3 1.2203-3 1.2142-3 1.2081-3 1.2020-3 1.1960-3 1.1900-3
 H, KJ/KG         30273.1  30533.1  30797.8  31067.2  31341.6  31621.2  31906.2  32196.6
 U, KJ/KG         21349.0  21564.0  21783.5  22007.6  22236.4  22470.1  22709.0  22953.1
 G, KJ/KG       -194468.3-195513.8-196560.9-197609.2-198658.8-199709.7-200761.8-201815.3
 S, KJ/(KG)(K)   104.5309 104.6513 104.7736 104.8974 105.0230 105.1504 105.2796 105.4108

 M, (1/n)           2.003    2.002    2.002    2.001    2.000    1.999    1.998    1.997
 (dLV/dLP)t      -1.00316 -1.00335 -1.00355 -1.00376 -1.00399 -1.00422 -1.00446 -1.00471
 (dLV/dLT)p        1.0805   1.0850   1.0896   1.0945   1.0996   1.1049   1.1105   1.1162
 Cp, KJ/(KG)(K)   25.7791  26.2316  26.7017  27.1899  27.6967  28.2227  28.7684  29.3342
 GAMMAs            1.2267   1.2240   1.2212   1.2185   1.2158   1.2132   1.2105   1.2079
 SON VEL,M/SEC     3308.7   3313.3   3317.9   3322.6   3327.2   3331.9   3336.7   3341.5

 TRANSPORT PROPERTIES (GASES ONLY)
   CONDUCTIVITY IN UNITS OF MILLIWATTS/(CM)(K)

 VISC,MILLIPOISE  0.35587  0.35725  0.35863  0.36003  0.36143  0.36284  0.36426  0.36569

  WITH EQUILIBRIUM REACTIONS

 Cp, KJ/(KG)(K)   25.7791  26.2316  26.7017  27.1899  27.6967  28.2227  28.7684  29.3342
 CONDUCTIVITY     16.9290  17.4211  17.9338  18.4673  19.0222  19.5991  20.1988  20.8219
 PRANDTL NUMBER    0.5419   0.5379   0.5340   0.5301   0.5262   0.5225   0.5188   0.5152

  WITH FROZEN REACTIONS

 Cp, KJ/(KG)(K)   17.2761  17.2934  17.3107  17.3279  17.3452  17.3624  17.3796  17.3968
 CONDUCTIVITY      8.7528   8.7962   8.8404   8.8849   8.9298   8.9751   9.0207   9.0667
 PRANDTL NUMBER    0.7024   0.7023   0.7022   0.7021   0.7020   0.7019   0.7018   0.7017

 MASS FRACTIONS

 *H               0.00637  0.00676  0.00716  0.00759  0.00804  0.00850  0.00900  0.00951
 *H2              0.99363  0.99324  0.99284  0.99241  0.99196  0.99150  0.99100  0.99049

  * THERMODYNAMIC PROPERTIES FITTED TO 20000.K

 NOTE. WEIGHT FRACTION OF FUEL IN TOTAL FUELS AND OF OXIDANT IN TOTAL OXIDANTS









               THERMODYNAMIC EQUILIBRIUM PROPERTIES AT ASSIGNED

                           TEMPERATURE AND PRESSURE

 CASE =                

             REACTANT                    WT FRACTION      ENERGY      TEMP
                                          (SEE NOTE)     KJ/KG-MOL      K  
 FUEL        H2                           1.0000000         0.000      0.000
 OXIDANT     H2                           1.0000000         0.000      0.000

 O/F=    1.00000  %FUEL= 50.000000  R,EQ.RATIO= 0.000000  PHI,EQ.RATIO=-1.000000

 THERMODYNAMIC PROPERTIES

 P, BAR           0.11000  0.11000  0.11000  0.11000  0.11000  0.11000  0.11000  0.12000
 T, K             2230.00  2240.00  2250.00  2260.00  2270.00  2280.00  2290.00  2150.00
 RHO, KG/CU M    1.1841-3 1.1781-3 1.1722-3 1.1663-3 1.1604-3 1.1545-3 1.1487-3 1.3450-3
 H, KJ/KG         32492.9  32795.1  33103.5  33418.4  33739.8  34068.2  34403.6  30211.9
 U, KJ/KG         23202.8  23458.1  23719.3  23986.7  24260.3  24540.5  24827.4  21290.1
 G, KJ/KG       -202870.1-203926.2-204983.6-206042.5-207102.8-208164.5-209227.6-193691.5
 S, KJ/(KG)(K)   105.5439 105.6792 105.8165 105.9561 106.0981 106.2424 106.3892 104.1411

 M, (1/n)           1.996    1.995    1.994    1.992    1.991    1.990    1.988    2.004
 (dLV/dLP)t      -1.00498 -1.00525 -1.00554 -1.00585 -1.00616 -1.00649 -1.00684 -1.00303
 (dLV/dLT)p        1.1222   1.1285   1.1350   1.1418   1.1488   1.1561   1.1637   1.0771
 Cp, KJ/(KG)(K)   29.9208  30.5286  31.1583  31.8103  32.4853  33.1837  33.9062  25.4162
 GAMMAs            1.2054   1.2028   1.2003   1.1979   1.1954   1.1931   1.1907   1.2291
 SON VEL,M/SEC     3346.3   3351.2   3356.2   3361.2   3366.3   3371.5   3376.8   3311.4

 TRANSPORT PROPERTIES (GASES ONLY)
   CONDUCTIVITY IN UNITS OF MILLIWATTS/(CM)(K)

 VISC,MILLIPOISE  0.36713  0.36858  0.37005  0.37152  0.37300  0.37450  0.37601  0.35577

  WITH EQUILIBRIUM REACTIONS

 Cp, KJ/(KG)(K)   29.9208  30.5286  31.1583  31.8103  32.4853  33.1837  33.9062  25.4162
 CONDUCTIVITY     21.4691  22.1410  22.8384  23.5619  24.3122  25.0901  25.8962  16.5786
 PRANDTL NUMBER    0.5117   0.5082   0.5049   0.5016   0.4984   0.4953   0.4923   0.5454

  WITH FROZEN REACTIONS

 Cp, KJ/(KG)(K)   17.4140  17.4312  17.4483  17.4655  17.4826  17.4998  17.5170  17.2751
 CONDUCTIVITY      9.1131   9.1600   9.2072   9.2550   9.3031   9.3518   9.4009   8.7484
 PRANDTL NUMBER    0.7015   0.7014   0.7013   0.7011   0.7010   0.7008   0.7006   0.7025

 MASS FRACTIONS

 *H               0.01005  0.01062  0.01121  0.01184  0.01248  0.01316  0.01387  0.00610
 *H2              0.98995  0.98938  0.98879  0.98816  0.98752  0.98684  0.98613  0.99390

  * THERMODYNAMIC PROPERTIES FITTED TO 20000.K

 NOTE. WEIGHT FRACTION OF FUEL IN TOTAL FUELS AND OF OXIDANT IN TOTAL OXIDANTS









               THERMODYNAMIC EQUILIBRIUM PROPERTIES AT ASSIGNED

                           TEMPERATURE AND PRESSURE

 CASE =                

             REACTANT                    WT FRACTION      ENERGY      TEMP
                                          (SEE NOTE)     KJ/KG-MOL      K  
 FUEL        H2                           1.0000000         0.000      0.000
 OXIDANT     H2                           1.0000000         0.000      0.000

 O/F=    1.00000  %FUEL= 50.000000  R,EQ.RATIO= 0.000000  PHI,EQ.RATIO=-1.000000

 THERMODYNAMIC PROPERTIES

 P, BAR           0.12000  0.12000  0.12000  0.12000  0.12000  0.12000  0.12000  0.12000
 T, K             2160.00  2170.00  2180.00  2190.00  2200.00  2210.00  2220.00  2230.00
 RHO, KG/CU M    1.3383-3 1.3316-3 1.3250-3 1.3184-3 1.3118-3 1.3052-3 1.2987-3 1.2922-3
 H, KJ/KG         30468.2  30729.0  30994.3  31264.4  31539.5  31819.7  32105.2  32396.2
 U, KJ/KG         21501.7  21717.4  21937.6  22162.2  22391.7  22626.0  22865.4  23110.0
 G, KJ/KG       -194733.4-195776.6-196821.1-197866.7-198913.6-199961.7-201011.2-202061.9
 S, KJ/(KG)(K)   104.2600 104.3805 104.5025 104.6261 104.7514 104.8785 105.0074 105.1382

 M, (1/n)           2.003    2.002    2.001    2.000    2.000    1.999    1.998    1.997
 (dLV/dLP)t      -1.00321 -1.00340 -1.00361 -1.00382 -1.00404 -1.00427 -1.00451 -1.00477
 (dLV/dLT)p        1.0814   1.0859   1.0905   1.0954   1.1005   1.1058   1.1113   1.1171
 Cp, KJ/(KG)(K)   25.8501  26.3009  26.7690  27.2550  27.7593  28.2824  28.8248  29.3871
 GAMMAs            1.2264   1.2236   1.2209   1.2183   1.2156   1.2130   1.2104   1.2078
 SON VEL,M/SEC     3316.0   3320.7   3325.3   3330.0   3334.7   3339.4   3344.2   3349.0

 TRANSPORT PROPERTIES (GASES ONLY)
   CONDUCTIVITY IN UNITS OF MILLIWATTS/(CM)(K)

 VISC,MILLIPOISE  0.35714  0.35852  0.35990  0.36130  0.36270  0.36412  0.36554  0.36697

  WITH EQUILIBRIUM REACTIONS

 Cp, KJ/(KG)(K)   25.8501  26.3009  26.7690  27.2550  27.7593  28.2824  28.8248  29.3871
 CONDUCTIVITY     17.0521  17.5449  18.0576  18.5908  19.1452  19.7214  20.3201  20.9419
 PRANDTL NUMBER    0.5414   0.5374   0.5335   0.5297   0.5259   0.5222   0.5185   0.5150

  WITH FROZEN REACTIONS

 Cp, KJ/(KG)(K)   17.2924  17.3096  17.3269  17.3440  17.3612  17.3784  17.3955  17.4126
 CONDUCTIVITY      8.7920   8.8359   8.8801   8.9247   8.9697   9.0150   9.0607   9.1068
 PRANDTL NUMBER    0.7024   0.7023   0.7022   0.7021   0.7020   0.7019   0.7018   0.7017

 MASS FRACTIONS

 *H               0.00647  0.00686  0.00726  0.00769  0.00814  0.00861  0.00911  0.00963
 *H2              0.99353  0.99314  0.99274  0.99231  0.99186  0.99139  0.99089  0.99037

  * THERMODYNAMIC PROPERTIES FITTED TO 20000.K

 NOTE. WEIGHT FRACTION OF FUEL IN TOTAL FUELS AND OF OXIDANT IN TOTAL OXIDANTS









               THERMODYNAMIC EQUILIBRIUM PROPERTIES AT ASSIGNED

                           TEMPERATURE AND PRESSURE

 CASE =                

             REACTANT                    WT FRACTION      ENERGY      TEMP
                                          (SEE NOTE)     KJ/KG-MOL      K  
 FUEL        H2                           1.0000000         0.000      0.000
 OXIDANT     H2                           1.0000000         0.000      0.000

 O/F=    1.00000  %FUEL= 50.000000  R,EQ.RATIO= 0.000000  PHI,EQ.RATIO=-1.000000

 THERMODYNAMIC PROPERTIES

 P, BAR           0.12000  0.12000  0.12000  0.12000  0.12000  0.12000  0.13200  0.13200
 T, K             2240.00  2250.00  2260.00  2270.00  2280.00  2290.00  2150.00  2160.00
 RHO, KG/CU M    1.2858-3 1.2793-3 1.2729-3 1.2666-3 1.2602-3 1.2538-3 1.4799-3 1.4726-3
 H, KJ/KG         32693.0  32995.7  33304.5  33619.7  33941.5  34270.1  30147.9  30400.3
 U, KJ/KG         23360.1  23615.9  23877.5  24145.2  24419.1  24699.5  21228.6  21436.4
 G, KJ/KG       -203113.9-204167.3-205222.0-206278.2-207335.7-208394.6-192841.2-193879.0
 S, KJ/(KG)(K)   105.2709 105.4058 105.5427 105.6819 105.8233 105.9671 103.7159 103.8330

 M, (1/n)           1.996    1.994    1.993    1.992    1.991    1.989    2.004    2.004
 (dLV/dLP)t      -1.00503 -1.00531 -1.00560 -1.00591 -1.00622 -1.00655 -1.00289 -1.00306
 (dLV/dLT)p        1.1231   1.1293   1.1358   1.1426   1.1496   1.1569   1.0735   1.0776
 Cp, KJ/(KG)(K)   29.9698  30.5733  31.1983  31.8452  32.5145  33.2070  25.0364  25.4509
 GAMMAs            1.2053   1.2028   1.2003   1.1979   1.1955   1.1931   1.2316   1.2289
 SON VEL,M/SEC     3353.9   3358.8   3363.8   3368.9   3374.0   3379.2   3314.4   3319.0

 TRANSPORT PROPERTIES (GASES ONLY)
   CONDUCTIVITY IN UNITS OF MILLIWATTS/(CM)(K)

 VISC,MILLIPOISE  0.36841  0.36986  0.37133  0.37280  0.37429  0.37578  0.35566  0.35702

  WITH EQUILIBRIUM REACTIONS

 Cp, KJ/(KG)(K)   29.9698  30.5733  31.1983  31.8452  32.5145  33.2070  25.0364  25.4509
 CONDUCTIVITY     21.5874  22.2574  22.9524  23.6732  24.4205  25.1948  16.2122  16.6656
 PRANDTL NUMBER    0.5115   0.5081   0.5047   0.5015   0.4983   0.4953   0.5492   0.5452

  WITH FROZEN REACTIONS

 Cp, KJ/(KG)(K)   17.4297  17.4468  17.4639  17.4810  17.4980  17.5151  17.2742  17.2914
 CONDUCTIVITY      9.1533   9.2002   9.2475   9.2953   9.3435   9.3922   8.7442   8.7875
 PRANDTL NUMBER    0.7015   0.7014   0.7012   0.7011   0.7009   0.7008   0.7026   0.7025

 MASS FRACTIONS

 *H               0.01017  0.01074  0.01133  0.01195  0.01260  0.01328  0.00581  0.00617
 *H2              0.98983  0.98926  0.98867  0.98805  0.98740  0.98672  0.99419  0.99383

  * THERMODYNAMIC PROPERTIES FITTED TO 20000.K

 NOTE. WEIGHT FRACTION OF FUEL IN TOTAL FUELS AND OF OXIDANT IN TOTAL OXIDANTS









               THERMODYNAMIC EQUILIBRIUM PROPERTIES AT ASSIGNED

                           TEMPERATURE AND PRESSURE

 CASE =                

             REACTANT                    WT FRACTION      ENERGY      TEMP
                                          (SEE NOTE)     KJ/KG-MOL      K  
 FUEL        H2                           1.0000000         0.000      0.000
 OXIDANT     H2                           1.0000000         0.000      0.000

 O/F=    1.00000  %FUEL= 50.000000  R,EQ.RATIO= 0.000000  PHI,EQ.RATIO=-1.000000

 THERMODYNAMIC PROPERTIES

 P, BAR           0.13200  0.13200  0.13200  0.13200  0.13200  0.13200  0.13200  0.13200
 T, K             2170.00  2180.00  2190.00  2200.00  2210.00  2220.00  2230.00  2240.00
 RHO, KG/CU M    1.4653-3 1.4580-3 1.4507-3 1.4435-3 1.4363-3 1.4292-3 1.4221-3 1.4150-3
 H, KJ/KG         30657.0  30918.0  31183.6  31453.9  31729.1  32009.4  32295.0  32586.1
 U, KJ/KG         21648.3  21864.3  22084.7  22309.5  22539.1  22773.5  23012.9  23257.6
 G, KJ/KG       -194917.9-195958.0-196999.3-198041.9-199085.7-200130.7-201177.0-202224.6
 S, KJ/(KG)(K)   103.9515 104.0716 104.1931 104.3163 104.4411 104.5676 104.6960 104.8262

 M, (1/n)           2.003    2.002    2.001    2.000    1.999    1.999    1.998    1.997
 (dLV/dLP)t      -1.00325 -1.00344 -1.00364 -1.00385 -1.00407 -1.00430 -1.00455 -1.00480
 (dLV/dLT)p        1.0819   1.0863   1.0910   1.0959   1.1009   1.1062   1.1117   1.1174
 Cp, KJ/(KG)(K)   25.8815  26.3286  26.7926  27.2742  27.7737  28.2917  28.8285  29.3848
 GAMMAs            1.2262   1.2236   1.2209   1.2183   1.2156   1.2131   1.2105   1.2080
 SON VEL,M/SEC     3323.7   3328.3   3333.0   3337.7   3342.4   3347.2   3352.0   3356.8

 TRANSPORT PROPERTIES (GASES ONLY)
   CONDUCTIVITY IN UNITS OF MILLIWATTS/(CM)(K)

 VISC,MILLIPOISE  0.35840  0.35978  0.36116  0.36256  0.36396  0.36538  0.36680  0.36823

  WITH EQUILIBRIUM REACTIONS

 Cp, KJ/(KG)(K)   25.8815  26.3286  26.7926  27.2742  27.7737  28.2917  28.8285  29.3848
 CONDUCTIVITY     17.1375  17.6284  18.1390  18.6697  19.2214  19.7944  20.3896  21.0074
 PRANDTL NUMBER    0.5413   0.5373   0.5335   0.5297   0.5259   0.5222   0.5186   0.5151

  WITH FROZEN REACTIONS

 Cp, KJ/(KG)(K)   17.3086  17.3257  17.3429  17.3600  17.3770  17.3941  17.4111  17.4282
 CONDUCTIVITY      8.8311   8.8751   8.9194   8.9640   9.0090   9.0544   9.1001   9.1462
 PRANDTL NUMBER    0.7024   0.7023   0.7022   0.7021   0.7020   0.7019   0.7018   0.7017

 MASS FRACTIONS

 *H               0.00654  0.00693  0.00734  0.00776  0.00821  0.00868  0.00918  0.00970
 *H2              0.99346  0.99307  0.99266  0.99224  0.99179  0.99132  0.99082  0.99030

  * THERMODYNAMIC PROPERTIES FITTED TO 20000.K

 NOTE. WEIGHT FRACTION OF FUEL IN TOTAL FUELS AND OF OXIDANT IN TOTAL OXIDANTS









               THERMODYNAMIC EQUILIBRIUM PROPERTIES AT ASSIGNED

                           TEMPERATURE AND PRESSURE

 CASE =                

             REACTANT                    WT FRACTION      ENERGY      TEMP
                                          (SEE NOTE)     KJ/KG-MOL      K  
 FUEL        H2                           1.0000000         0.000      0.000
 OXIDANT     H2                           1.0000000         0.000      0.000

 O/F=    1.00000  %FUEL= 50.000000  R,EQ.RATIO= 0.000000  PHI,EQ.RATIO=-1.000000

 THERMODYNAMIC PROPERTIES

 P, BAR           0.13200  0.13200  0.13200  0.13200  0.13200  0.14800  0.14800  0.14800
 T, K             2250.00  2260.00  2270.00  2280.00  2290.00  2150.00  2160.00  2170.00
 RHO, KG/CU M    1.4080-3 1.4010-3 1.3940-3 1.3870-3 1.3801-3 1.6599-3 1.6516-3 1.6435-3
 H, KJ/KG         32882.8  33185.4  33494.0  33808.9  34130.4  30074.9  30322.9  30574.9
 U, KJ/KG         23507.6  23763.3  24024.7  24292.1  24565.6  21158.6  21362.1  21569.5
 G, KJ/KG       -203273.5-204323.8-205375.4-206428.4-207482.8-191821.0-192853.6-193887.4
 S, KJ/(KG)(K)   104.9584 105.0925 105.2288 105.3672 105.5079 103.2074 103.3225 103.4388

 M, (1/n)           1.995    1.994    1.993    1.992    1.991    2.005    2.004    2.004
 (dLV/dLP)t      -1.00507 -1.00534 -1.00563 -1.00594 -1.00625 -1.00273 -1.00289 -1.00307
 (dLV/dLT)p        1.1234   1.1296   1.1360   1.1427   1.1496   1.0695   1.0733   1.0774
 Cp, KJ/(KG)(K)   29.9610  30.5576  31.1752  31.8142  32.4751  24.6038  24.9961  25.4037
 GAMMAs            1.2054   1.2030   1.2005   1.1982   1.1958   1.2347   1.2320   1.2293
 SON VEL,M/SEC     3361.7   3366.7   3371.7   3376.8   3381.9   3317.9   3322.6   3327.3

 TRANSPORT PROPERTIES (GASES ONLY)
   CONDUCTIVITY IN UNITS OF MILLIWATTS/(CM)(K)

 VISC,MILLIPOISE  0.36967  0.37112  0.37259  0.37406  0.37555  0.35554  0.35689  0.35826

  WITH EQUILIBRIUM REACTIONS

 Cp, KJ/(KG)(K)   29.9610  30.5576  31.1752  31.8142  32.4751  24.6038  24.9961  25.4037
 CONDUCTIVITY     21.6486  22.3138  23.0036  23.7187  24.4598  15.7944  16.2251  16.6731
 PRANDTL NUMBER    0.5116   0.5082   0.5049   0.5017   0.4986   0.5538   0.5498   0.5459

  WITH FROZEN REACTIONS

 Cp, KJ/(KG)(K)   17.4452  17.4622  17.4792  17.4962  17.5132  17.2731  17.2903  17.3074
 CONDUCTIVITY      9.1927   9.2397   9.2870   9.3348   9.3830   8.7393   8.7824   8.8257
 PRANDTL NUMBER    0.7015   0.7014   0.7013   0.7011   0.7010   0.7027   0.7026   0.7025

 MASS FRACTIONS

 *H               0.01024  0.01080  0.01140  0.01202  0.01266  0.00549  0.00582  0.00617
 *H2              0.98976  0.98920  0.98860  0.98798  0.98734  0.99451  0.99418  0.99383

  * THERMODYNAMIC PROPERTIES FITTED TO 20000.K

 NOTE. WEIGHT FRACTION OF FUEL IN TOTAL FUELS AND OF OXIDANT IN TOTAL OXIDANTS









               THERMODYNAMIC EQUILIBRIUM PROPERTIES AT ASSIGNED

                           TEMPERATURE AND PRESSURE

 CASE =                

             REACTANT                    WT FRACTION      ENERGY      TEMP
                                          (SEE NOTE)     KJ/KG-MOL      K  
 FUEL        H2                           1.0000000         0.000      0.000
 OXIDANT     H2                           1.0000000         0.000      0.000

 O/F=    1.00000  %FUEL= 50.000000  R,EQ.RATIO= 0.000000  PHI,EQ.RATIO=-1.000000

 THERMODYNAMIC PROPERTIES

 P, BAR           0.14800  0.14800  0.14800  0.14800  0.14800  0.14800  0.14800  0.14800
 T, K             2180.00  2190.00  2200.00  2210.00  2220.00  2230.00  2240.00  2250.00
 RHO, KG/CU M    1.6353-3 1.6272-3 1.6192-3 1.6112-3 1.6032-3 1.5953-3 1.5874-3 1.5795-3
 H, KJ/KG         30831.1  31091.5  31356.4  31626.0  31900.4  32179.7  32464.3  32754.2
 U, KJ/KG         21780.8  21996.3  22216.0  22440.1  22668.9  22902.4  23140.8  23384.3
 G, KJ/KG       -194922.4-195958.5-196995.9-198034.5-199074.3-200115.3-201157.6-202201.2
 S, KJ/(KG)(K)   103.5566 103.6758 103.7965 103.9188 104.0426 104.1682 104.2955 104.4246

 M, (1/n)           2.003    2.002    2.001    2.000    1.999    1.999    1.998    1.997
 (dLV/dLP)t      -1.00325 -1.00344 -1.00364 -1.00385 -1.00407 -1.00430 -1.00454 -1.00479
 (dLV/dLT)p        1.0816   1.0860   1.0906   1.0953   1.1003   1.1055   1.1109   1.1166
 Cp, KJ/(KG)(K)   25.8268  26.2660  26.7217  27.1943  27.6843  28.1922  28.7185  29.2635
 GAMMAs            1.2267   1.2240   1.2214   1.2188   1.2162   1.2137   1.2112   1.2086
 SON VEL,M/SEC     3331.9   3336.6   3341.3   3346.0   3350.8   3355.6   3360.4   3365.2

 TRANSPORT PROPERTIES (GASES ONLY)
   CONDUCTIVITY IN UNITS OF MILLIWATTS/(CM)(K)

 VISC,MILLIPOISE  0.35963  0.36101  0.36239  0.36379  0.36519  0.36660  0.36802  0.36945

  WITH EQUILIBRIUM REACTIONS

 Cp, KJ/(KG)(K)   25.8268  26.2660  26.7217  27.1943  27.6843  28.1922  28.7185  29.2635
 CONDUCTIVITY     17.1392  17.6239  18.1277  18.6512  19.1950  19.7598  20.3460  20.9544
 PRANDTL NUMBER    0.5419   0.5380   0.5342   0.5304   0.5267   0.5230   0.5195   0.5160

  WITH FROZEN REACTIONS

 Cp, KJ/(KG)(K)   17.3245  17.3415  17.3585  17.3755  17.3925  17.4095  17.4264  17.4434
 CONDUCTIVITY      8.8694   8.9133   8.9576   9.0022   9.0472   9.0925   9.1382   9.1842
 PRANDTL NUMBER    0.7025   0.7024   0.7023   0.7022   0.7021   0.7019   0.7018   0.7017

 MASS FRACTIONS

 *H               0.00654  0.00693  0.00733  0.00776  0.00820  0.00867  0.00916  0.00967
 *H2              0.99346  0.99307  0.99267  0.99224  0.99180  0.99133  0.99084  0.99033

  * THERMODYNAMIC PROPERTIES FITTED TO 20000.K

 NOTE. WEIGHT FRACTION OF FUEL IN TOTAL FUELS AND OF OXIDANT IN TOTAL OXIDANTS









               THERMODYNAMIC EQUILIBRIUM PROPERTIES AT ASSIGNED

                           TEMPERATURE AND PRESSURE

 CASE =                

             REACTANT                    WT FRACTION      ENERGY      TEMP
                                          (SEE NOTE)     KJ/KG-MOL      K  
 FUEL        H2                           1.0000000         0.000      0.000
 OXIDANT     H2                           1.0000000         0.000      0.000

 O/F=    1.00000  %FUEL= 50.000000  R,EQ.RATIO= 0.000000  PHI,EQ.RATIO=-1.000000

 THERMODYNAMIC PROPERTIES

 P, BAR           0.14800  0.14800  0.14800  0.14800  0.16500  0.16500  0.16500  0.16500
 T, K             2260.00  2270.00  2280.00  2290.00  2150.00  2160.00  2170.00  2180.00
 RHO, KG/CU M    1.5717-3 1.5639-3 1.5562-3 1.5484-3 1.8511-3 1.8419-3 1.8328-3 1.8238-3
 H, KJ/KG         33049.6  33350.8  33657.9  33971.2  30009.4  30253.4  30501.2  30752.9
 U, KJ/KG         23633.1  23887.4  24147.3  24413.1  21095.6  21295.3  21498.7  21705.8
 G, KJ/KG       -203246.1-204292.4-205339.9-206388.8-190851.6-191879.4-192908.4-193938.5
 S, KJ/(KG)(K)   104.5556 104.6886 104.8236 104.9607 102.7260 102.8393 102.9537 103.0694

 M, (1/n)           1.996    1.994    1.993    1.992    2.005    2.005    2.004    2.003
 (dLV/dLP)t      -1.00505 -1.00532 -1.00561 -1.00591 -1.00259 -1.00274 -1.00291 -1.00308
 (dLV/dLT)p        1.1224   1.1285   1.1349   1.1414   1.0658   1.0695   1.0733   1.0773
 Cp, KJ/(KG)(K)   29.8279  30.4120  31.0163  31.6414  24.2149  24.5874  24.9742  25.3758
 GAMMAs            1.2062   1.2037   1.2013   1.1990   1.2375   1.2348   1.2322   1.2296
 SON VEL,M/SEC     3370.2   3375.1   3380.2   3385.2   3321.2   3325.9   3330.6   3335.3

 TRANSPORT PROPERTIES (GASES ONLY)
   CONDUCTIVITY IN UNITS OF MILLIWATTS/(CM)(K)

 VISC,MILLIPOISE  0.37089  0.37234  0.37380  0.37528  0.35543  0.35678  0.35813  0.35950

  WITH EQUILIBRIUM REACTIONS

 Cp, KJ/(KG)(K)   29.8279  30.4120  31.0163  31.6414  24.2149  24.5874  24.9742  25.3758
 CONDUCTIVITY     21.5855  22.2399  22.9183  23.6213  15.4187  15.8288  16.2555  16.6992
 PRANDTL NUMBER    0.5125   0.5092   0.5059   0.5027   0.5582   0.5542   0.5502   0.5463

  WITH FROZEN REACTIONS

 Cp, KJ/(KG)(K)   17.4603  17.4772  17.4941  17.5109  17.2721  17.2892  17.3063  17.3233
 CONDUCTIVITY      9.2307   9.2775   9.3248   9.3725   8.7350   8.7778   8.8208   8.8642
 PRANDTL NUMBER    0.7016   0.7014   0.7013   0.7011   0.7028   0.7027   0.7027   0.7026

 MASS FRACTIONS

 *H               0.01020  0.01076  0.01135  0.01196  0.00520  0.00552  0.00585  0.00620
 *H2              0.98980  0.98924  0.98865  0.98804  0.99480  0.99448  0.99415  0.99380

  * THERMODYNAMIC PROPERTIES FITTED TO 20000.K

 NOTE. WEIGHT FRACTION OF FUEL IN TOTAL FUELS AND OF OXIDANT IN TOTAL OXIDANTS









               THERMODYNAMIC EQUILIBRIUM PROPERTIES AT ASSIGNED

                           TEMPERATURE AND PRESSURE

 CASE =                

             REACTANT                    WT FRACTION      ENERGY      TEMP
                                          (SEE NOTE)     KJ/KG-MOL      K  
 FUEL        H2                           1.0000000         0.000      0.000
 OXIDANT     H2                           1.0000000         0.000      0.000

 O/F=    1.00000  %FUEL= 50.000000  R,EQ.RATIO= 0.000000  PHI,EQ.RATIO=-1.000000

 THERMODYNAMIC PROPERTIES

 P, BAR           0.16500  0.16500  0.16500  0.16500  0.16500  0.16500  0.16500  0.16500
 T, K             2190.00  2200.00  2210.00  2220.00  2230.00  2240.00  2250.00  2260.00
 RHO, KG/CU M    1.8148-3 1.8059-3 1.7970-3 1.7881-3 1.7793-3 1.7706-3 1.7619-3 1.7532-3
 H, KJ/KG         31008.8  31268.8  31533.3  31802.4  32076.1  32354.8  32638.6  32927.6
 U, KJ/KG         21916.8  22131.9  22351.2  22574.8  22803.0  23035.8  23273.5  23516.1
 G, KJ/KG       -194969.7-196002.2-197035.9-198070.7-199106.8-200144.1-201182.7-202222.5
 S, KJ/(KG)(K)   103.1865 103.3050 103.4250 103.5464 103.6695 103.7942 103.9206 104.0487

 M, (1/n)           2.003    2.002    2.001    2.000    1.999    1.999    1.998    1.997
 (dLV/dLP)t      -1.00326 -1.00345 -1.00365 -1.00385 -1.00407 -1.00430 -1.00454 -1.00479
 (dLV/dLT)p        1.0815   1.0858   1.0903   1.0951   1.1000   1.1051   1.1105   1.1160
 Cp, KJ/(KG)(K)   25.7926  26.2250  26.6735  27.1384  27.6203  28.1195  28.6366  29.1719
 GAMMAs            1.2270   1.2244   1.2218   1.2192   1.2167   1.2142   1.2117   1.2092
 SON VEL,M/SEC     3340.0   3344.7   3349.4   3354.2   3359.0   3363.8   3368.6   3373.5

 TRANSPORT PROPERTIES (GASES ONLY)
   CONDUCTIVITY IN UNITS OF MILLIWATTS/(CM)(K)

 VISC,MILLIPOISE  0.36087  0.36224  0.36363  0.36502  0.36642  0.36784  0.36925  0.37068

  WITH EQUILIBRIUM REACTIONS

 Cp, KJ/(KG)(K)   25.7926  26.2250  26.6735  27.1384  27.6203  28.1195  28.6366  29.1719
 CONDUCTIVITY     17.1605  17.6400  18.1383  18.6558  19.1931  19.7509  20.3297  20.9301
 PRANDTL NUMBER    0.5424   0.5385   0.5347   0.5310   0.5273   0.5237   0.5201   0.5167

  WITH FROZEN REACTIONS

 Cp, KJ/(KG)(K)   17.3403  17.3573  17.3742  17.3911  17.4080  17.4249  17.4417  17.4585
 CONDUCTIVITY      8.9078   8.9518   8.9960   9.0406   9.0856   9.1309   9.1765   9.2226
 PRANDTL NUMBER    0.7025   0.7024   0.7023   0.7022   0.7021   0.7020   0.7018   0.7017

 MASS FRACTIONS

 *H               0.00656  0.00694  0.00735  0.00777  0.00821  0.00867  0.00916  0.00966
 *H2              0.99344  0.99306  0.99265  0.99223  0.99179  0.99133  0.99084  0.99034

  * THERMODYNAMIC PROPERTIES FITTED TO 20000.K

 NOTE. WEIGHT FRACTION OF FUEL IN TOTAL FUELS AND OF OXIDANT IN TOTAL OXIDANTS









               THERMODYNAMIC EQUILIBRIUM PROPERTIES AT ASSIGNED

                           TEMPERATURE AND PRESSURE

 CASE =                

             REACTANT                    WT FRACTION      ENERGY      TEMP
                                          (SEE NOTE)     KJ/KG-MOL      K  
 FUEL        H2                           1.0000000         0.000      0.000
 OXIDANT     H2                           1.0000000         0.000      0.000

 O/F=    1.00000  %FUEL= 50.000000  R,EQ.RATIO= 0.000000  PHI,EQ.RATIO=-1.000000

 THERMODYNAMIC PROPERTIES

 P, BAR           0.16500  0.16500  0.16500  0.18000  0.18000  0.18000  0.18000  0.18000
 T, K             2270.00  2280.00  2290.00  2150.00  2160.00  2170.00  2180.00  2190.00
 RHO, KG/CU M    1.7445-3 1.7359-3 1.7274-3 2.0198-3 2.0098-3 1.9999-3 1.9901-3 1.9803-3
 H, KJ/KG         33222.1  33522.2  33828.1  29959.4  30200.4  30445.0  30693.4  30945.7
 U, KJ/KG         23764.0  24017.2  24276.0  21047.6  21244.4  21444.7  21648.6  21856.3
 G, KJ/KG       -203263.7-204306.1-205349.9-190076.1-191100.0-192125.1-193151.4-194178.8
 S, KJ/(KG)(K)   104.1787 104.3107 104.4445 102.3421 102.4539 102.5669 102.6811 102.7966

 M, (1/n)           1.996    1.994    1.993    2.006    2.005    2.005    2.004    2.003
 (dLV/dLP)t      -1.00504 -1.00532 -1.00560 -1.00248 -1.00263 -1.00278 -1.00295 -1.00312
 (dLV/dLT)p        1.1218   1.1278   1.1340   1.0630   1.0665   1.0702   1.0740   1.0780
 Cp, KJ/(KG)(K)   29.7259  30.2991  30.8920  23.9186  24.2759  24.6469  25.0321  25.4319
 GAMMAs            1.2068   1.2044   1.2020   1.2397   1.2371   1.2345   1.2319   1.2293
 SON VEL,M/SEC     3378.4   3383.4   3388.4   3323.9   3328.6   3333.3   3338.0   3342.7

 TRANSPORT PROPERTIES (GASES ONLY)
   CONDUCTIVITY IN UNITS OF MILLIWATTS/(CM)(K)

 VISC,MILLIPOISE  0.37212  0.37357  0.37503  0.35534  0.35669  0.35804  0.35940  0.36076

  WITH EQUILIBRIUM REACTIONS

 Cp, KJ/(KG)(K)   29.7259  30.2991  30.8920  23.9186  24.2759  24.6469  25.0321  25.4319
 CONDUCTIVITY     21.5526  22.1979  22.8666  15.1323  15.5267  15.9370  16.3637  16.8072
 PRANDTL NUMBER    0.5132   0.5099   0.5067   0.5617   0.5577   0.5537   0.5498   0.5459

  WITH FROZEN REACTIONS

 Cp, KJ/(KG)(K)   17.4754  17.4922  17.5090  17.2714  17.2884  17.3054  17.3224  17.3394
 CONDUCTIVITY      9.2690   9.3158   9.3631   8.7317   8.7743   8.8171   8.8602   8.9036
 PRANDTL NUMBER    0.7016   0.7014   0.7013   0.7029   0.7028   0.7027   0.7026   0.7026

 MASS FRACTIONS

 *H               0.01019  0.01075  0.01133  0.00498  0.00528  0.00560  0.00593  0.00628
 *H2              0.98981  0.98925  0.98867  0.99502  0.99472  0.99440  0.99407  0.99372

  * THERMODYNAMIC PROPERTIES FITTED TO 20000.K

 NOTE. WEIGHT FRACTION OF FUEL IN TOTAL FUELS AND OF OXIDANT IN TOTAL OXIDANTS









               THERMODYNAMIC EQUILIBRIUM PROPERTIES AT ASSIGNED

                           TEMPERATURE AND PRESSURE

 CASE =                

             REACTANT                    WT FRACTION      ENERGY      TEMP
                                          (SEE NOTE)     KJ/KG-MOL      K  
 FUEL        H2                           1.0000000         0.000      0.000
 OXIDANT     H2                           1.0000000         0.000      0.000

 O/F=    1.00000  %FUEL= 50.000000  R,EQ.RATIO= 0.000000  PHI,EQ.RATIO=-1.000000

 THERMODYNAMIC PROPERTIES

 P, BAR           0.18000  0.18000  0.18000  0.18000  0.18000  0.18000  0.18000  0.18000
 T, K             2200.00  2210.00  2220.00  2230.00  2240.00  2250.00  2260.00  2270.00
 RHO, KG/CU M    1.9706-3 1.9609-3 1.9513-3 1.9418-3 1.9322-3 1.9228-3 1.9133-3 1.9040-3
 H, KJ/KG         31202.1  31462.7  31727.7  31997.2  32271.4  32550.5  32834.6  33124.0
 U, KJ/KG         22067.8  22283.4  22503.2  22727.2  22955.8  23189.0  23427.0  23670.0
 G, KJ/KG       -195207.3-196237.0-197267.9-198300.1-199333.4-200368.0-201403.8-202440.9
 S, KJ/(KG)(K)   102.9134 103.0315 103.1512 103.2723 103.3950 103.5193 103.6453 103.7731

 M, (1/n)           2.003    2.002    2.001    2.000    1.999    1.998    1.997    1.996
 (dLV/dLP)t      -1.00330 -1.00349 -1.00369 -1.00390 -1.00412 -1.00435 -1.00458 -1.00483
 (dLV/dLT)p        1.0822   1.0865   1.0910   1.0958   1.1007   1.1058   1.1111   1.1167
 Cp, KJ/(KG)(K)   25.8466  26.2766  26.7224  27.1845  27.6631  28.1588  28.6720  29.2031
 GAMMAs            1.2267   1.2242   1.2216   1.2191   1.2166   1.2141   1.2116   1.2092
 SON VEL,M/SEC     3347.4   3352.1   3356.9   3361.7   3366.5   3371.3   3376.2   3381.1

 TRANSPORT PROPERTIES (GASES ONLY)
   CONDUCTIVITY IN UNITS OF MILLIWATTS/(CM)(K)

 VISC,MILLIPOISE  0.36213  0.36351  0.36490  0.36629  0.36769  0.36910  0.37052  0.37195

  WITH EQUILIBRIUM REACTIONS

 Cp, KJ/(KG)(K)   25.8466  26.2766  26.7224  27.1845  27.6631  28.1588  28.6720  29.2031
 CONDUCTIVITY     17.2682  17.7471  18.2446  18.7610  19.2971  19.8533  20.4302  21.0284
 PRANDTL NUMBER    0.5420   0.5382   0.5345   0.5307   0.5271   0.5235   0.5200   0.5166

  WITH FROZEN REACTIONS

 Cp, KJ/(KG)(K)   17.3563  17.3732  17.3900  17.4069  17.4237  17.4405  17.4572  17.4740
 CONDUCTIVITY      8.9473   8.9913   9.0357   9.0803   9.1253   9.1707   9.2164   9.2625
 PRANDTL NUMBER    0.7025   0.7024   0.7023   0.7022   0.7021   0.7019   0.7018   0.7017

 MASS FRACTIONS

 *H               0.00665  0.00703  0.00744  0.00786  0.00830  0.00877  0.00925  0.00976
 *H2              0.99335  0.99297  0.99256  0.99214  0.99170  0.99123  0.99075  0.99024

  * THERMODYNAMIC PROPERTIES FITTED TO 20000.K

 NOTE. WEIGHT FRACTION OF FUEL IN TOTAL FUELS AND OF OXIDANT IN TOTAL OXIDANTS









               THERMODYNAMIC EQUILIBRIUM PROPERTIES AT ASSIGNED

                           TEMPERATURE AND PRESSURE

 CASE =                

             REACTANT                    WT FRACTION      ENERGY      TEMP
                                          (SEE NOTE)     KJ/KG-MOL      K  
 FUEL        H2                           1.0000000         0.000      0.000
 OXIDANT     H2                           1.0000000         0.000      0.000

 O/F=    1.00000  %FUEL= 50.000000  R,EQ.RATIO= 0.000000  PHI,EQ.RATIO=-1.000000

 THERMODYNAMIC PROPERTIES

 P, BAR           0.18000  0.18000  0.20000  0.20000  0.20000  0.20000  0.20000  0.20000
 T, K             2280.00  2290.00  2150.00  2160.00  2170.00  2180.00  2190.00  2200.00
 RHO, KG/CU M    1.8946-3 1.8853-3 2.2448-3 2.2337-3 2.2228-3 2.2119-3 2.2011-3 2.1903-3
 H, KJ/KG         33418.8  33719.1  29901.8  30139.2  30380.2  30624.7  30872.9  31125.0
 U, KJ/KG         23918.1  24171.6  20992.2  21185.7  21382.5  21582.7  21786.4  21993.9
 G, KJ/KG       -203479.3-204518.9-189137.2-190156.6-191177.0-192198.6-193221.2-194245.1
 S, KJ/(KG)(K)   103.9026 104.0341 101.8786 101.9888 102.1001 102.2125 102.3261 102.4410

 M, (1/n)           1.995    1.994    2.006    2.006    2.005    2.005    2.004    2.003
 (dLV/dLP)t      -1.00509 -1.00536 -1.00235 -1.00249 -1.00264 -1.00280 -1.00296 -1.00313
 (dLV/dLT)p        1.1224   1.1284   1.0598   1.0631   1.0666   1.0702   1.0740   1.0780
 Cp, KJ/(KG)(K)   29.7526  30.3209  23.5767  23.9165  24.2693  24.6355  25.0156  25.4098
 GAMMAs            1.2068   1.2044   1.2423   1.2398   1.2372   1.2346   1.2321   1.2295
 SON VEL,M/SEC     3386.0   3391.0   3327.0   3331.7   3336.5   3341.2   3345.9   3350.7

 TRANSPORT PROPERTIES (GASES ONLY)
   CONDUCTIVITY IN UNITS OF MILLIWATTS/(CM)(K)

 VISC,MILLIPOISE  0.37339  0.37484  0.35525  0.35659  0.35793  0.35928  0.36064  0.36200

  WITH EQUILIBRIUM REACTIONS

 Cp, KJ/(KG)(K)   29.7526  30.3209  23.5767  23.9165  24.2693  24.6355  25.0156  25.4098
 CONDUCTIVITY     21.6484  22.2909  14.8016  15.1779  15.5693  15.9762  16.3992  16.8388
 PRANDTL NUMBER    0.5132   0.5099   0.5659   0.5619   0.5579   0.5540   0.5501   0.5463

  WITH FROZEN REACTIONS

 Cp, KJ/(KG)(K)   17.4907  17.5074  17.2705  17.2875  17.3045  17.3214  17.3383  17.3552
 CONDUCTIVITY      9.3089   9.3558   8.7279   8.7702   8.8128   8.8556   8.8988   8.9422
 PRANDTL NUMBER    0.7016   0.7014   0.7030   0.7029   0.7028   0.7027   0.7027   0.7026

 MASS FRACTIONS

 *H               0.01029  0.01084  0.00472  0.00501  0.00531  0.00563  0.00596  0.00631
 *H2              0.98971  0.98916  0.99528  0.99499  0.99469  0.99437  0.99404  0.99369

  * THERMODYNAMIC PROPERTIES FITTED TO 20000.K

 NOTE. WEIGHT FRACTION OF FUEL IN TOTAL FUELS AND OF OXIDANT IN TOTAL OXIDANTS









               THERMODYNAMIC EQUILIBRIUM PROPERTIES AT ASSIGNED

                           TEMPERATURE AND PRESSURE

 CASE =                

             REACTANT                    WT FRACTION      ENERGY      TEMP
                                          (SEE NOTE)     KJ/KG-MOL      K  
 FUEL        H2                           1.0000000         0.000      0.000
 OXIDANT     H2                           1.0000000         0.000      0.000

 O/F=    1.00000  %FUEL= 50.000000  R,EQ.RATIO= 0.000000  PHI,EQ.RATIO=-1.000000

 THERMODYNAMIC PROPERTIES

 P, BAR           0.20000  0.20000  0.20000  0.20000  0.20000  0.20000  0.20000  0.20000
 T, K             2210.00  2220.00  2230.00  2240.00  2250.00  2260.00  2270.00  2280.00
 RHO, KG/CU M    2.1796-3 2.1690-3 2.1584-3 2.1478-3 2.1374-3 2.1269-3 2.1166-3 2.1062-3
 H, KJ/KG         31381.2  31641.5  31906.1  32175.1  32448.8  32727.3  33010.8  33299.4
 U, KJ/KG         22205.2  22420.5  22639.8  22863.5  23091.5  23324.1  23561.5  23803.7
 G, KJ/KG       -195270.1-196296.2-197323.6-198352.1-199381.9-200412.8-201445.0-202478.5
 S, KJ/(KG)(K)   102.5571 102.6746 102.7936 102.9140 103.0359 103.1594 103.2845 103.4114

 M, (1/n)           2.003    2.002    2.001    2.000    1.999    1.998    1.997    1.996
 (dLV/dLP)t      -1.00331 -1.00350 -1.00370 -1.00391 -1.00412 -1.00435 -1.00459 -1.00483
 (dLV/dLT)p        1.0821   1.0864   1.0909   1.0956   1.1004   1.1055   1.1107   1.1162
 Cp, KJ/(KG)(K)   25.8186  26.2424  26.6815  27.1364  27.6075  28.0951  28.5998  29.1219
 GAMMAs            1.2270   1.2245   1.2219   1.2194   1.2170   1.2145   1.2121   1.2097
 SON VEL,M/SEC     3355.4   3360.2   3364.9   3369.7   3374.6   3379.4   3384.3   3389.2

 TRANSPORT PROPERTIES (GASES ONLY)
   CONDUCTIVITY IN UNITS OF MILLIWATTS/(CM)(K)

 VISC,MILLIPOISE  0.36337  0.36475  0.36613  0.36753  0.36893  0.37034  0.37176  0.37319

  WITH EQUILIBRIUM REACTIONS

 Cp, KJ/(KG)(K)   25.8186  26.2424  26.6815  27.1364  27.6075  28.0951  28.5998  29.1219
 CONDUCTIVITY     17.2954  17.7696  18.2619  18.7728  19.3029  19.8527  20.4227  21.0135
 PRANDTL NUMBER    0.5424   0.5387   0.5349   0.5313   0.5277   0.5241   0.5206   0.5172

  WITH FROZEN REACTIONS

 Cp, KJ/(KG)(K)   17.3720  17.3888  17.4056  17.4223  17.4390  17.4557  17.4724  17.4890
 CONDUCTIVITY      8.9859   9.0299   9.0742   9.1189   9.1639   9.2092   9.2549   9.3010
 PRANDTL NUMBER    0.7025   0.7024   0.7023   0.7022   0.7021   0.7020   0.7018   0.7017

 MASS FRACTIONS

 *H               0.00667  0.00706  0.00746  0.00788  0.00832  0.00878  0.00926  0.00976
 *H2              0.99333  0.99294  0.99254  0.99212  0.99168  0.99122  0.99074  0.99024

  * THERMODYNAMIC PROPERTIES FITTED TO 20000.K

 NOTE. WEIGHT FRACTION OF FUEL IN TOTAL FUELS AND OF OXIDANT IN TOTAL OXIDANTS









               THERMODYNAMIC EQUILIBRIUM PROPERTIES AT ASSIGNED

                           TEMPERATURE AND PRESSURE

 CASE =                

             REACTANT                    WT FRACTION      ENERGY      TEMP
                                          (SEE NOTE)     KJ/KG-MOL      K  
 FUEL        H2                           1.0000000         0.000      0.000
 OXIDANT     H2                           1.0000000         0.000      0.000

 O/F=    1.00000  %FUEL= 50.000000  R,EQ.RATIO= 0.000000  PHI,EQ.RATIO=-1.000000

 THERMODYNAMIC PROPERTIES

 P, BAR           0.20000  0.22500  0.22500  0.22500  0.22500  0.22500  0.22500  0.22500
 T, K             2290.00  2150.00  2160.00  2170.00  2180.00  2190.00  2200.00  2210.00
 RHO, KG/CU M    2.0959-3 2.5261-3 2.5137-3 2.5014-3 2.4892-3 2.4770-3 2.4650-3 2.4530-3
 H, KJ/KG         33593.3  29840.8  30074.6  30311.6  30552.0  30796.0  31043.6  31295.0
 U, KJ/KG         24051.0  20933.7  21123.6  21316.6  21512.9  21712.6  21915.7  22122.5
 G, KJ/KG       -203513.3-188088.0-189102.1-190117.4-191133.7-192151.2-193169.8-194189.5
 S, KJ/(KG)(K)   103.5400 101.3622 101.4707 101.5802 101.6907 101.8024 101.9152 102.0292

 M, (1/n)           1.995    2.007    2.006    2.006    2.005    2.005    2.004    2.003
 (dLV/dLP)t      -1.00509 -1.00222 -1.00235 -1.00249 -1.00264 -1.00279 -1.00296 -1.00313
 (dLV/dLT)p        1.1219   1.0564   1.0595   1.0628   1.0662   1.0698   1.0736   1.0774
 Cp, KJ/(KG)(K)   29.6618  23.2151  23.5364  23.8700  24.2162  24.5754  24.9480  25.3343
 GAMMAs            1.2073   1.2452   1.2427   1.2402   1.2377   1.2351   1.2326   1.2301
 SON VEL,M/SEC     3394.2   3330.4   3335.2   3340.0   3344.7   3349.5   3354.3   3359.0

 TRANSPORT PROPERTIES (GASES ONLY)
   CONDUCTIVITY IN UNITS OF MILLIWATTS/(CM)(K)

 VISC,MILLIPOISE  0.37463  0.35514  0.35648  0.35781  0.35916  0.36050  0.36186  0.36322

  WITH EQUILIBRIUM REACTIONS

 Cp, KJ/(KG)(K)   29.6618  23.2151  23.5364  23.8700  24.2162  24.5754  24.9480  25.3343
 CONDUCTIVITY     21.6257  14.4517  14.8089  15.1803  15.5663  15.9676  16.3844  16.8174
 PRANDTL NUMBER    0.5138   0.5705   0.5666   0.5626   0.5587   0.5548   0.5510   0.5472

  WITH FROZEN REACTIONS

 Cp, KJ/(KG)(K)   17.5057  17.2696  17.2866  17.3035  17.3204  17.3372  17.3540  17.3707
 CONDUCTIVITY      9.3474   8.7238   8.7659   8.8082   8.8508   8.8936   8.9367   8.9801
 PRANDTL NUMBER    0.7016   0.7030   0.7030   0.7029   0.7028   0.7028   0.7027   0.7026

 MASS FRACTIONS

 *H               0.01029  0.00445  0.00472  0.00501  0.00531  0.00562  0.00595  0.00629
 *H2              0.98971  0.99555  0.99528  0.99499  0.99469  0.99438  0.99405  0.99371

  * THERMODYNAMIC PROPERTIES FITTED TO 20000.K

 NOTE. WEIGHT FRACTION OF FUEL IN TOTAL FUELS AND OF OXIDANT IN TOTAL OXIDANTS









               THERMODYNAMIC EQUILIBRIUM PROPERTIES AT ASSIGNED

                           TEMPERATURE AND PRESSURE

 CASE =                

             REACTANT                    WT FRACTION      ENERGY      TEMP
                                          (SEE NOTE)     KJ/KG-MOL      K  
 FUEL        H2                           1.0000000         0.000      0.000
 OXIDANT     H2                           1.0000000         0.000      0.000

 O/F=    1.00000  %FUEL= 50.000000  R,EQ.RATIO= 0.000000  PHI,EQ.RATIO=-1.000000

 THERMODYNAMIC PROPERTIES

 P, BAR           0.22500  0.22500  0.22500  0.22500  0.22500  0.22500  0.22500  0.22500
 T, K             2220.00  2230.00  2240.00  2250.00  2260.00  2270.00  2280.00  2290.00
 RHO, KG/CU M    2.4411-3 2.4292-3 2.4174-3 2.4057-3 2.3940-3 2.3824-3 2.3708-3 2.3593-3
 H, KJ/KG         31550.3  31809.7  32073.4  32341.4  32613.9  32891.1  33173.2  33460.3
 U, KJ/KG         22333.0  22547.4  22765.9  22988.5  23215.4  23446.8  23682.8  23923.5
 G, KJ/KG       -195210.4-196232.4-197255.6-198280.0-199305.6-200332.4-201360.4-202389.7
 S, KJ/(KG)(K)   102.1445 102.2610 102.3790 102.4984 102.6192 102.7416 102.8656 102.9913

 M, (1/n)           2.003    2.002    2.001    2.000    1.999    1.998    1.997    1.997
 (dLV/dLP)t      -1.00330 -1.00349 -1.00369 -1.00389 -1.00410 -1.00433 -1.00456 -1.00480
 (dLV/dLT)p        1.0815   1.0857   1.0901   1.0947   1.0995   1.1045   1.1096   1.1150
 Cp, KJ/(KG)(K)   25.7348  26.1497  26.5795  27.0245  27.4852  27.9619  28.4550  28.9650
 GAMMAs            1.2276   1.2251   1.2226   1.2202   1.2177   1.2153   1.2129   1.2106
 SON VEL,M/SEC     3363.8   3368.6   3373.4   3378.2   3383.0   3387.9   3392.8   3397.8

 TRANSPORT PROPERTIES (GASES ONLY)
   CONDUCTIVITY IN UNITS OF MILLIWATTS/(CM)(K)

 VISC,MILLIPOISE  0.36459  0.36597  0.36735  0.36874  0.37014  0.37155  0.37297  0.37440

  WITH EQUILIBRIUM REACTIONS

 Cp, KJ/(KG)(K)   25.7348  26.1497  26.5795  27.0245  27.4852  27.9619  28.4550  28.9650
 CONDUCTIVITY     17.2670  17.7337  18.2180  18.7204  19.2415  19.7816  20.3415  20.9215
 PRANDTL NUMBER    0.5434   0.5396   0.5360   0.5323   0.5287   0.5252   0.5217   0.5183

  WITH FROZEN REACTIONS

 Cp, KJ/(KG)(K)   17.3875  17.4042  17.4209  17.4375  17.4541  17.4707  17.4873  17.5038
 CONDUCTIVITY      9.0238   9.0678   9.1121   9.1567   9.2016   9.2469   9.2925   9.3385
 PRANDTL NUMBER    0.7025   0.7024   0.7023   0.7022   0.7021   0.7020   0.7019   0.7018

 MASS FRACTIONS

 *H               0.00665  0.00703  0.00743  0.00784  0.00828  0.00873  0.00920  0.00970
 *H2              0.99335  0.99297  0.99257  0.99216  0.99172  0.99127  0.99080  0.99030

  * THERMODYNAMIC PROPERTIES FITTED TO 20000.K

 NOTE. WEIGHT FRACTION OF FUEL IN TOTAL FUELS AND OF OXIDANT IN TOTAL OXIDANTS









               THERMODYNAMIC EQUILIBRIUM PROPERTIES AT ASSIGNED

                           TEMPERATURE AND PRESSURE

 CASE =                

             REACTANT                    WT FRACTION      ENERGY      TEMP
                                          (SEE NOTE)     KJ/KG-MOL      K  
 FUEL        H2                           1.0000000         0.000      0.000
 OXIDANT     H2                           1.0000000         0.000      0.000

 O/F=    1.00000  %FUEL= 50.000000  R,EQ.RATIO= 0.000000  PHI,EQ.RATIO=-1.000000

 THERMODYNAMIC PROPERTIES

 P, BAR           0.25000  0.25000  0.25000  0.25000  0.25000  0.25000  0.25000  0.25000
 T, K             2150.00  2160.00  2170.00  2180.00  2190.00  2200.00  2210.00  2220.00
 RHO, KG/CU M    2.8074-3 2.7937-3 2.7800-3 2.7665-3 2.7531-3 2.7397-3 2.7264-3 2.7132-3
 H, KJ/KG         29789.3  30019.9  30253.6  30490.6  30730.9  30974.7  31222.1  31473.2
 U, KJ/KG         20884.1  21071.0  21260.9  21453.9  21650.1  21849.6  22052.5  22259.0
 G, KJ/KG       -187149.6-188159.2-189169.8-190181.5-191194.3-192208.2-193223.2-194239.4
 S, KJ/(KG)(K)   100.9018 101.0088 101.1168 101.2257 101.3357 101.4468 101.5590 101.6724

 M, (1/n)           2.007    2.007    2.006    2.006    2.005    2.005    2.004    2.003
 (dLV/dLP)t      -1.00210 -1.00223 -1.00236 -1.00250 -1.00265 -1.00280 -1.00297 -1.00314
 (dLV/dLT)p        1.0535   1.0565   1.0596   1.0629   1.0663   1.0698   1.0735   1.0773
 Cp, KJ/(KG)(K)   22.9093  23.2149  23.5322  23.8614  24.2031  24.5573  24.9247  25.3054
 GAMMAs            1.2478   1.2453   1.2428   1.2403   1.2378   1.2353   1.2328   1.2304
 SON VEL,M/SEC     3333.4   3338.2   3343.1   3347.9   3352.7   3357.5   3362.2   3367.0

 TRANSPORT PROPERTIES (GASES ONLY)
   CONDUCTIVITY IN UNITS OF MILLIWATTS/(CM)(K)

 VISC,MILLIPOISE  0.35506  0.35638  0.35771  0.35905  0.36039  0.36174  0.36310  0.36446

  WITH EQUILIBRIUM REACTIONS

 Cp, KJ/(KG)(K)   22.9093  23.2149  23.5322  23.8614  24.2031  24.5573  24.9247  25.3054
 CONDUCTIVITY     14.1556  14.4965  14.8510  15.2193  15.6021  15.9998  16.4128  16.8415
 PRANDTL NUMBER    0.5746   0.5707   0.5668   0.5629   0.5591   0.5552   0.5514   0.5476

  WITH FROZEN REACTIONS

 Cp, KJ/(KG)(K)   17.2688  17.2857  17.3026  17.3194  17.3362  17.3530  17.3697  17.3864
 CONDUCTIVITY      8.7204   8.7622   8.8043   8.8467   8.8893   8.9321   8.9752   9.0186
 PRANDTL NUMBER    0.7031   0.7031   0.7030   0.7029   0.7029   0.7028   0.7027   0.7026

 MASS FRACTIONS

 *H               0.00422  0.00448  0.00475  0.00503  0.00533  0.00564  0.00597  0.00631
 *H2              0.99578  0.99552  0.99525  0.99497  0.99467  0.99436  0.99403  0.99369

  * THERMODYNAMIC PROPERTIES FITTED TO 20000.K

 NOTE. WEIGHT FRACTION OF FUEL IN TOTAL FUELS AND OF OXIDANT IN TOTAL OXIDANTS









               THERMODYNAMIC EQUILIBRIUM PROPERTIES AT ASSIGNED

                           TEMPERATURE AND PRESSURE

 CASE =                

             REACTANT                    WT FRACTION      ENERGY      TEMP
                                          (SEE NOTE)     KJ/KG-MOL      K  
 FUEL        H2                           1.0000000         0.000      0.000
 OXIDANT     H2                           1.0000000         0.000      0.000

 O/F=    1.00000  %FUEL= 50.000000  R,EQ.RATIO= 0.000000  PHI,EQ.RATIO=-1.000000

 THERMODYNAMIC PROPERTIES

 P, BAR           0.25000  0.25000  0.25000  0.25000  0.25000  0.25000  0.25000  0.28000
 T, K             2230.00  2240.00  2250.00  2260.00  2270.00  2280.00  2290.00  2150.00
 RHO, KG/CU M    2.7001-3 2.6870-3 2.6740-3 2.6611-3 2.6483-3 2.6355-3 2.6227-3 3.1450-3
 H, KJ/KG         31728.2  31987.3  32250.4  32517.9  32789.9  33066.4  33347.8  29736.8
 U, KJ/KG         22469.2  22683.3  22901.3  23123.4  23349.7  23580.4  23815.7  20833.7
 G, KJ/KG       -195256.7-196275.1-197294.8-198315.5-199337.5-200360.7-201385.1-186140.5
 S, KJ/(KG)(K)   101.7870 101.9029 102.0201 102.1387 102.2588 102.3803 102.5034 100.4081

 M, (1/n)           2.003    2.002    2.001    2.000    1.999    1.998    1.997    2.008
 (dLV/dLP)t      -1.00331 -1.00350 -1.00369 -1.00389 -1.00411 -1.00433 -1.00456 -1.00199
 (dLV/dLT)p        1.0814   1.0855   1.0899   1.0944   1.0991   1.1040   1.1091   1.0506
 Cp, KJ/(KG)(K)   25.6998  26.1083  26.5313  26.9692  27.4222  27.8908  28.3754  22.5978
 GAMMAs            1.2279   1.2255   1.2230   1.2206   1.2182   1.2158   1.2134   1.2504
 SON VEL,M/SEC     3371.8   3376.6   3381.4   3386.3   3391.1   3396.0   3401.0   3336.5

 TRANSPORT PROPERTIES (GASES ONLY)
   CONDUCTIVITY IN UNITS OF MILLIWATTS/(CM)(K)

 VISC,MILLIPOISE  0.36583  0.36720  0.36859  0.36998  0.37138  0.37278  0.37420  0.35497

  WITH EQUILIBRIUM REACTIONS

 Cp, KJ/(KG)(K)   25.6998  26.1083  26.5313  26.9692  27.4222  27.8908  28.3754  22.5978
 CONDUCTIVITY     17.2865  17.7483  18.2272  18.7239  19.2388  19.7723  20.3251  13.8539
 PRANDTL NUMBER    0.5439   0.5402   0.5365   0.5329   0.5293   0.5258   0.5224   0.5790

  WITH FROZEN REACTIONS

 Cp, KJ/(KG)(K)   17.4030  17.4196  17.4362  17.4528  17.4693  17.4858  17.5023  17.2681
 CONDUCTIVITY      9.0623   9.1063   9.1505   9.1951   9.2400   9.2853   9.3309   8.7169
 PRANDTL NUMBER    0.7025   0.7024   0.7023   0.7022   0.7021   0.7020   0.7019   0.7032

 MASS FRACTIONS

 *H               0.00667  0.00705  0.00744  0.00785  0.00828  0.00873  0.00920  0.00399
 *H2              0.99333  0.99295  0.99256  0.99215  0.99172  0.99127  0.99080  0.99601

  * THERMODYNAMIC PROPERTIES FITTED TO 20000.K

 NOTE. WEIGHT FRACTION OF FUEL IN TOTAL FUELS AND OF OXIDANT IN TOTAL OXIDANTS









               THERMODYNAMIC EQUILIBRIUM PROPERTIES AT ASSIGNED

                           TEMPERATURE AND PRESSURE

 CASE =                

             REACTANT                    WT FRACTION      ENERGY      TEMP
                                          (SEE NOTE)     KJ/KG-MOL      K  
 FUEL        H2                           1.0000000         0.000      0.000
 OXIDANT     H2                           1.0000000         0.000      0.000

 O/F=    1.00000  %FUEL= 50.000000  R,EQ.RATIO= 0.000000  PHI,EQ.RATIO=-1.000000

 THERMODYNAMIC PROPERTIES

 P, BAR           0.28000  0.28000  0.28000  0.28000  0.28000  0.28000  0.28000  0.28000
 T, K             2160.00  2170.00  2180.00  2190.00  2200.00  2210.00  2220.00  2230.00
 RHO, KG/CU M    3.1297-3 3.1144-3 3.0993-3 3.0843-3 3.0694-3 3.0546-3 3.0398-3 3.0252-3
 H, KJ/KG         29964.2  30194.6  30428.0  30664.6  30904.5  31147.8  31394.7  31645.2
 U, KJ/KG         21017.5  21204.2  21393.8  21586.4  21782.2  21981.3  22183.7  22389.6
 G, KJ/KG       -187145.1-188150.8-189157.5-190165.3-191174.2-192184.2-193195.3-194207.6
 S, KJ/(KG)(K)   100.5136 100.6200 100.7273 100.8356 100.9449 101.0552 101.1667 101.2793

 M, (1/n)           2.007    2.007    2.006    2.006    2.005    2.005    2.004    2.003
 (dLV/dLP)t      -1.00211 -1.00223 -1.00237 -1.00251 -1.00265 -1.00280 -1.00296 -1.00313
 (dLV/dLT)p        1.0534   1.0563   1.0594   1.0626   1.0660   1.0695   1.0731   1.0769
 Cp, KJ/(KG)(K)   22.8875  23.1881  23.5002  23.8238  24.1595  24.5074  24.8680  25.2416
 GAMMAs            1.2480   1.2455   1.2431   1.2406   1.2382   1.2357   1.2333   1.2309
 SON VEL,M/SEC     3341.4   3346.3   3351.2   3356.0   3360.8   3365.6   3370.5   3375.3

 TRANSPORT PROPERTIES (GASES ONLY)
   CONDUCTIVITY IN UNITS OF MILLIWATTS/(CM)(K)

 VISC,MILLIPOISE  0.35629  0.35761  0.35894  0.36028  0.36162  0.36297  0.36432  0.36568

  WITH EQUILIBRIUM REACTIONS

 Cp, KJ/(KG)(K)   22.8875  23.1881  23.5002  23.8238  24.1595  24.5074  24.8680  25.2416
 CONDUCTIVITY     14.1782  14.5154  14.8658  15.2298  15.6078  16.0004  16.4079  16.8308
 PRANDTL NUMBER    0.5751   0.5713   0.5674   0.5636   0.5598   0.5560   0.5522   0.5484

  WITH FROZEN REACTIONS

 Cp, KJ/(KG)(K)   17.2849  17.3017  17.3185  17.3353  17.3520  17.3686  17.3852  17.4018
 CONDUCTIVITY      8.7585   8.8004   8.8425   8.8848   8.9274   8.9702   9.0133   9.0567
 PRANDTL NUMBER    0.7031   0.7031   0.7030   0.7029   0.7029   0.7028   0.7027   0.7026

 MASS FRACTIONS

 *H               0.00423  0.00449  0.00476  0.00504  0.00533  0.00564  0.00596  0.00630
 *H2              0.99577  0.99551  0.99524  0.99496  0.99467  0.99436  0.99404  0.99370

  * THERMODYNAMIC PROPERTIES FITTED TO 20000.K

 NOTE. WEIGHT FRACTION OF FUEL IN TOTAL FUELS AND OF OXIDANT IN TOTAL OXIDANTS









               THERMODYNAMIC EQUILIBRIUM PROPERTIES AT ASSIGNED

                           TEMPERATURE AND PRESSURE

 CASE =                

             REACTANT                    WT FRACTION      ENERGY      TEMP
                                          (SEE NOTE)     KJ/KG-MOL      K  
 FUEL        H2                           1.0000000         0.000      0.000
 OXIDANT     H2                           1.0000000         0.000      0.000

 O/F=    1.00000  %FUEL= 50.000000  R,EQ.RATIO= 0.000000  PHI,EQ.RATIO=-1.000000

 THERMODYNAMIC PROPERTIES

 P, BAR           0.28000  0.28000  0.28000  0.28000  0.28000  0.28000  0.31000  0.31000
 T, K             2240.00  2250.00  2260.00  2270.00  2280.00  2290.00  2150.00  2160.00
 RHO, KG/CU M    3.0106-3 2.9961-3 2.9817-3 2.9674-3 2.9531-3 2.9389-3 3.4826-3 3.4657-3
 H, KJ/KG         31899.6  32157.9  32420.2  32686.8  32957.7  33233.1  29692.1  29916.8
 U, KJ/KG         22599.2  22812.5  23029.7  23250.9  23476.2  23705.9  20790.8  20972.0
 G, KJ/KG       -195220.9-196235.4-197251.1-198267.9-199286.0-200305.2-185234.4-186234.6
 S, KJ/(KG)(K)   101.3931 101.5081 101.6245 101.7422 101.8613 101.9818  99.9658 100.0701

 M, (1/n)           2.003    2.002    2.001    2.000    1.999    1.999    2.008    2.008
 (dLV/dLP)t      -1.00331 -1.00349 -1.00368 -1.00388 -1.00409 -1.00431 -1.00189 -1.00200
 (dLV/dLT)p        1.0809   1.0850   1.0893   1.0937   1.0984   1.1032   1.0481   1.0508
 Cp, KJ/(KG)(K)   25.6285  26.0291  26.4436  26.8726  27.3162  27.7749  22.3327  22.6088
 GAMMAs            1.2284   1.2260   1.2236   1.2212   1.2189   1.2165   1.2527   1.2504
 SON VEL,M/SEC     3380.1   3384.9   3389.8   3394.6   3399.5   3404.4   3339.3   3344.3

 TRANSPORT PROPERTIES (GASES ONLY)
   CONDUCTIVITY IN UNITS OF MILLIWATTS/(CM)(K)

 VISC,MILLIPOISE  0.36705  0.36843  0.36981  0.37120  0.37259  0.37400  0.35489  0.35621

  WITH EQUILIBRIUM REACTIONS

 Cp, KJ/(KG)(K)   25.6285  26.0291  26.4436  26.8726  27.3162  27.7749  22.3327  22.6088
 CONDUCTIVITY     17.2695  17.7245  18.1963  18.6854  19.1921  19.7170  13.5970  13.9072
 PRANDTL NUMBER    0.5447   0.5410   0.5374   0.5338   0.5303   0.5268   0.5829   0.5791

  WITH FROZEN REACTIONS

 Cp, KJ/(KG)(K)   17.4184  17.4349  17.4514  17.4678  17.4843  17.5007  17.2674  17.2842
 CONDUCTIVITY      9.1003   9.1443   9.1885   9.2331   9.2780   9.3232   8.7139   8.7553
 PRANDTL NUMBER    0.7025   0.7025   0.7024   0.7023   0.7022   0.7020   0.7033   0.7032

 MASS FRACTIONS

 *H               0.00666  0.00703  0.00742  0.00783  0.00825  0.00870  0.00379  0.00402
 *H2              0.99334  0.99297  0.99258  0.99217  0.99175  0.99130  0.99621  0.99598

  * THERMODYNAMIC PROPERTIES FITTED TO 20000.K

 NOTE. WEIGHT FRACTION OF FUEL IN TOTAL FUELS AND OF OXIDANT IN TOTAL OXIDANTS









               THERMODYNAMIC EQUILIBRIUM PROPERTIES AT ASSIGNED

                           TEMPERATURE AND PRESSURE

 CASE =                

             REACTANT                    WT FRACTION      ENERGY      TEMP
                                          (SEE NOTE)     KJ/KG-MOL      K  
 FUEL        H2                           1.0000000         0.000      0.000
 OXIDANT     H2                           1.0000000         0.000      0.000

 O/F=    1.00000  %FUEL= 50.000000  R,EQ.RATIO= 0.000000  PHI,EQ.RATIO=-1.000000

 THERMODYNAMIC PROPERTIES

 P, BAR           0.31000  0.31000  0.31000  0.31000  0.31000  0.31000  0.31000  0.31000
 T, K             2170.00  2180.00  2190.00  2200.00  2210.00  2220.00  2230.00  2240.00
 RHO, KG/CU M    3.4489-3 3.4322-3 3.4156-3 3.3992-3 3.3828-3 3.3665-3 3.3504-3 3.3343-3
 H, KJ/KG         30144.3  30374.7  30608.2  30844.8  31084.6  31327.9  31574.6  31824.9
 U, KJ/KG         21155.9  21342.7  21532.3  21724.9  21920.6  22119.6  22321.9  22527.6
 G, KJ/KG       -187235.8-188238.1-189241.5-190245.9-191251.4-192258.0-193265.7-194274.5
 S, KJ/(KG)(K)   100.1752 100.2811 100.3880 100.4958 100.6045 100.7143 100.8252 100.9372

 M, (1/n)           2.007    2.007    2.006    2.006    2.005    2.005    2.004    2.003
 (dLV/dLP)t      -1.00212 -1.00225 -1.00238 -1.00252 -1.00267 -1.00282 -1.00298 -1.00314
 (dLV/dLT)p        1.0536   1.0565   1.0595   1.0627   1.0660   1.0695   1.0731   1.0769
 Cp, KJ/(KG)(K)   22.8953  23.1927  23.5011  23.8209  24.1523  24.4958  24.8516  25.2201
 GAMMAs            1.2480   1.2455   1.2431   1.2407   1.2383   1.2359   1.2335   1.2311
 SON VEL,M/SEC     3349.2   3354.1   3359.0   3363.8   3368.7   3373.5   3378.3   3383.2

 TRANSPORT PROPERTIES (GASES ONLY)
   CONDUCTIVITY IN UNITS OF MILLIWATTS/(CM)(K)

 VISC,MILLIPOISE  0.35753  0.35885  0.36018  0.36152  0.36286  0.36421  0.36556  0.36692

  WITH EQUILIBRIUM REACTIONS

 Cp, KJ/(KG)(K)   22.8953  23.1927  23.5011  23.8209  24.1523  24.4958  24.8516  25.2201
 CONDUCTIVITY     14.2297  14.5647  14.9127  15.2740  15.6492  16.0386  16.4426  16.8617
 PRANDTL NUMBER    0.5753   0.5714   0.5676   0.5638   0.5600   0.5563   0.5525   0.5488

  WITH FROZEN REACTIONS

 Cp, KJ/(KG)(K)   17.3010  17.3177  17.3344  17.3511  17.3677  17.3843  17.4008  17.4173
 CONDUCTIVITY      8.7970   8.8389   8.8810   8.9234   8.9660   9.0088   9.0519   9.0953
 PRANDTL NUMBER    0.7031   0.7031   0.7030   0.7030   0.7029   0.7028   0.7027   0.7026

 MASS FRACTIONS

 *H               0.00427  0.00452  0.00479  0.00507  0.00536  0.00567  0.00599  0.00633
 *H2              0.99573  0.99548  0.99521  0.99493  0.99464  0.99433  0.99401  0.99367

  * THERMODYNAMIC PROPERTIES FITTED TO 20000.K

 NOTE. WEIGHT FRACTION OF FUEL IN TOTAL FUELS AND OF OXIDANT IN TOTAL OXIDANTS









               THERMODYNAMIC EQUILIBRIUM PROPERTIES AT ASSIGNED

                           TEMPERATURE AND PRESSURE

 CASE =                

             REACTANT                    WT FRACTION      ENERGY      TEMP
                                          (SEE NOTE)     KJ/KG-MOL      K  
 FUEL        H2                           1.0000000         0.000      0.000
 OXIDANT     H2                           1.0000000         0.000      0.000

 O/F=    1.00000  %FUEL= 50.000000  R,EQ.RATIO= 0.000000  PHI,EQ.RATIO=-1.000000

 THERMODYNAMIC PROPERTIES

 P, BAR           0.31000  0.31000  0.31000  0.31000  0.31000  0.35000  0.35000  0.35000
 T, K             2250.00  2260.00  2270.00  2280.00  2290.00  2150.00  2160.00  2170.00
 RHO, KG/CU M    3.3183-3 3.3024-3 3.2866-3 3.2709-3 3.2552-3 3.9329-3 3.9138-3 3.8949-3
 H, KJ/KG         32079.0  32337.0  32599.0  32865.2  33135.6  29641.7  29863.3  30087.6
 U, KJ/KG         22736.9  22949.9  23166.8  23387.5  23612.4  20742.3  20920.6  21101.5
 G, KJ/KG       -195284.4-196295.5-197307.7-198321.1-199335.7-184154.3-185149.2-186145.1
 S, KJ/(KG)(K)   101.0504 101.1648 101.2805 101.3975 101.5158  99.4400  99.5428  99.6464

 M, (1/n)           2.003    2.002    2.001    2.000    1.999    2.009    2.008    2.008
 (dLV/dLP)t      -1.00332 -1.00350 -1.00369 -1.00389 -1.00410 -1.00178 -1.00189 -1.00200
 (dLV/dLT)p        1.0808   1.0849   1.0891   1.0935   1.0981   1.0453   1.0478   1.0504
 Cp, KJ/(KG)(K)   25.6016  25.9963  26.4048  26.8272  27.2639  22.0337  22.2945  22.5651
 GAMMAs            1.2287   1.2263   1.2239   1.2216   1.2193   1.2554   1.2531   1.2508
 SON VEL,M/SEC     3388.0   3392.9   3397.7   3402.6   3407.5   3342.6   3347.6   3352.5

 TRANSPORT PROPERTIES (GASES ONLY)
   CONDUCTIVITY IN UNITS OF MILLIWATTS/(CM)(K)

 VISC,MILLIPOISE  0.36829  0.36966  0.37104  0.37243  0.37383  0.35481  0.35612  0.35743

  WITH EQUILIBRIUM REACTIONS

 Cp, KJ/(KG)(K)   25.6016  25.9963  26.4048  26.8272  27.2639  22.0337  22.2945  22.5651
 CONDUCTIVITY     17.2963  17.7469  18.2139  18.6978  19.1990  13.3072  13.6015  13.9073
 PRANDTL NUMBER    0.5451   0.5415   0.5379   0.5344   0.5309   0.5875   0.5837   0.5799

  WITH FROZEN REACTIONS

 Cp, KJ/(KG)(K)   17.4338  17.4502  17.4666  17.4830  17.4993  17.2666  17.2834  17.3002
 CONDUCTIVITY      9.1389   9.1829   9.2271   9.2717   9.3165   8.7105   8.7517   8.7932
 PRANDTL NUMBER    0.7026   0.7025   0.7024   0.7023   0.7022   0.7033   0.7033   0.7032

 MASS FRACTIONS

 *H               0.00668  0.00705  0.00744  0.00784  0.00826  0.00357  0.00379  0.00401
 *H2              0.99332  0.99295  0.99256  0.99216  0.99174  0.99643  0.99621  0.99599

  * THERMODYNAMIC PROPERTIES FITTED TO 20000.K

 NOTE. WEIGHT FRACTION OF FUEL IN TOTAL FUELS AND OF OXIDANT IN TOTAL OXIDANTS









               THERMODYNAMIC EQUILIBRIUM PROPERTIES AT ASSIGNED

                           TEMPERATURE AND PRESSURE

 CASE =                

             REACTANT                    WT FRACTION      ENERGY      TEMP
                                          (SEE NOTE)     KJ/KG-MOL      K  
 FUEL        H2                           1.0000000         0.000      0.000
 OXIDANT     H2                           1.0000000         0.000      0.000

 O/F=    1.00000  %FUEL= 50.000000  R,EQ.RATIO= 0.000000  PHI,EQ.RATIO=-1.000000

 THERMODYNAMIC PROPERTIES

 P, BAR           0.35000  0.35000  0.35000  0.35000  0.35000  0.35000  0.35000  0.35000
 T, K             2180.00  2190.00  2200.00  2210.00  2220.00  2230.00  2240.00  2250.00
 RHO, KG/CU M    3.8761-3 3.8574-3 3.8389-3 3.8205-3 3.8022-3 3.7840-3 3.7659-3 3.7479-3
 H, KJ/KG         30314.7  30544.6  30777.4  31013.4  31252.5  31494.9  31740.8  31990.2
 U, KJ/KG         21285.0  21471.2  21660.3  21852.2  22047.3  22245.4  22446.9  22651.7
 G, KJ/KG       -187142.1-188140.1-189139.2-190139.4-191140.6-192142.9-193146.3-194150.9
 S, KJ/(KG)(K)    99.7508  99.8560  99.9621 100.0691 100.1771 100.2860 100.3960 100.5071

 M, (1/n)           2.007    2.007    2.006    2.006    2.005    2.005    2.004    2.003
 (dLV/dLP)t      -1.00212 -1.00224 -1.00237 -1.00251 -1.00265 -1.00280 -1.00296 -1.00312
 (dLV/dLT)p        1.0532   1.0560   1.0590   1.0622   1.0654   1.0688   1.0724   1.0761
 Cp, KJ/(KG)(K)   22.8459  23.1371  23.4390  23.7519  24.0761  24.4119  24.7596  25.1195
 GAMMAs            1.2484   1.2460   1.2437   1.2413   1.2389   1.2366   1.2342   1.2318
 SON VEL,M/SEC     3357.5   3362.4   3367.3   3372.2   3377.1   3381.9   3386.8   3391.7

 TRANSPORT PROPERTIES (GASES ONLY)
   CONDUCTIVITY IN UNITS OF MILLIWATTS/(CM)(K)

 VISC,MILLIPOISE  0.35875  0.36007  0.36140  0.36274  0.36408  0.36542  0.36678  0.36813

  WITH EQUILIBRIUM REACTIONS

 Cp, KJ/(KG)(K)   22.8459  23.1371  23.4390  23.7519  24.0761  24.4119  24.7596  25.1195
 CONDUCTIVITY     14.2250  14.5549  14.8974  15.2529  15.6218  16.0045  16.4015  16.8131
 PRANDTL NUMBER    0.5762   0.5724   0.5686   0.5649   0.5611   0.5574   0.5537   0.5500

  WITH FROZEN REACTIONS

 Cp, KJ/(KG)(K)   17.3169  17.3335  17.3501  17.3667  17.3832  17.3997  17.4161  17.4325
 CONDUCTIVITY      8.8348   8.8767   8.9188   8.9611   9.0037   9.0465   9.0896   9.1329
 PRANDTL NUMBER    0.7032   0.7031   0.7031   0.7030   0.7029   0.7028   0.7028   0.7027

 MASS FRACTIONS

 *H               0.00425  0.00450  0.00477  0.00504  0.00533  0.00564  0.00595  0.00629
 *H2              0.99575  0.99550  0.99523  0.99496  0.99467  0.99436  0.99405  0.99371

  * THERMODYNAMIC PROPERTIES FITTED TO 20000.K

 NOTE. WEIGHT FRACTION OF FUEL IN TOTAL FUELS AND OF OXIDANT IN TOTAL OXIDANTS









               THERMODYNAMIC EQUILIBRIUM PROPERTIES AT ASSIGNED

                           TEMPERATURE AND PRESSURE

 CASE =                

             REACTANT                    WT FRACTION      ENERGY      TEMP
                                          (SEE NOTE)     KJ/KG-MOL      K  
 FUEL        H2                           1.0000000         0.000      0.000
 OXIDANT     H2                           1.0000000         0.000      0.000

 O/F=    1.00000  %FUEL= 50.000000  R,EQ.RATIO= 0.000000  PHI,EQ.RATIO=-1.000000

 THERMODYNAMIC PROPERTIES

 P, BAR           0.35000  0.35000  0.35000  0.35000  0.39000  0.39000  0.39000  0.39000
 T, K             2260.00  2270.00  2280.00  2290.00  2150.00  2160.00  2170.00  2180.00
 RHO, KG/CU M    3.7301-3 3.7123-3 3.6946-3 3.6770-3 4.3832-3 4.3620-3 4.3409-3 4.3201-3
 H, KJ/KG         32243.2  32500.1  32760.8  33025.6  29599.3  29818.3  30039.9  30264.1
 U, KJ/KG         22860.0  23071.9  23287.5  23507.0  20701.6  20877.4  21055.7  21236.4
 G, KJ/KG       -195156.5-196163.3-197171.2-198180.2-183191.4-184181.6-185172.8-186165.1
 S, KJ/(KG)(K)   100.6193 100.7327 100.8474 100.9632  98.9724  99.0740  99.1764  99.2794

 M, (1/n)           2.003    2.002    2.001    2.000    2.009    2.009    2.008    2.008
 (dLV/dLP)t      -1.00330 -1.00348 -1.00366 -1.00386 -1.00169 -1.00179 -1.00189 -1.00201
 (dLV/dLT)p        1.0799   1.0839   1.0880   1.0924   1.0429   1.0453   1.0478   1.0504
 Cp, KJ/(KG)(K)   25.4919  25.8772  26.2757  26.6876  21.7820  22.0299  22.2872  22.5540
 GAMMAs            1.2295   1.2271   1.2248   1.2225   1.2578   1.2555   1.2532   1.2509
 SON VEL,M/SEC     3396.5   3401.4   3406.3   3411.2   3345.4   3350.4   3355.5   3360.4

 TRANSPORT PROPERTIES (GASES ONLY)
   CONDUCTIVITY IN UNITS OF MILLIWATTS/(CM)(K)

 VISC,MILLIPOISE  0.36950  0.37087  0.37225  0.37364  0.35473  0.35604  0.35735  0.35866

  WITH EQUILIBRIUM REACTIONS

 Cp, KJ/(KG)(K)   25.4919  25.8772  26.2757  26.6876  21.7820  22.0299  22.2872  22.5540
 CONDUCTIVITY     17.2397  17.6819  18.1399  18.6143  13.0630  13.3440  13.6358  13.9388
 PRANDTL NUMBER    0.5464   0.5428   0.5392   0.5357   0.5915   0.5878   0.5841   0.5803

  WITH FROZEN REACTIONS

 Cp, KJ/(KG)(K)   17.4489  17.4652  17.4815  17.4978  17.2660  17.2828  17.2995  17.3161
 CONDUCTIVITY      9.1765   9.2204   9.2646   9.3090   8.7077   8.7487   8.7900   8.8314
 PRANDTL NUMBER    0.7026   0.7025   0.7024   0.7023   0.7034   0.7033   0.7033   0.7032

 MASS FRACTIONS

 *H               0.00664  0.00700  0.00738  0.00778  0.00338  0.00359  0.00380  0.00403
 *H2              0.99336  0.99300  0.99262  0.99222  0.99662  0.99641  0.99620  0.99597

  * THERMODYNAMIC PROPERTIES FITTED TO 20000.K

 NOTE. WEIGHT FRACTION OF FUEL IN TOTAL FUELS AND OF OXIDANT IN TOTAL OXIDANTS









               THERMODYNAMIC EQUILIBRIUM PROPERTIES AT ASSIGNED

                           TEMPERATURE AND PRESSURE

 CASE =                

             REACTANT                    WT FRACTION      ENERGY      TEMP
                                          (SEE NOTE)     KJ/KG-MOL      K  
 FUEL        H2                           1.0000000         0.000      0.000
 OXIDANT     H2                           1.0000000         0.000      0.000

 O/F=    1.00000  %FUEL= 50.000000  R,EQ.RATIO= 0.000000  PHI,EQ.RATIO=-1.000000

 THERMODYNAMIC PROPERTIES

 P, BAR           0.39000  0.39000  0.39000  0.39000  0.39000  0.39000  0.39000  0.39000
 T, K             2190.00  2200.00  2210.00  2220.00  2230.00  2240.00  2250.00  2260.00
 RHO, KG/CU M    4.2993-3 4.2787-3 4.2582-3 4.2379-3 4.2177-3 4.1976-3 4.1776-3 4.1578-3
 H, KJ/KG         30491.0  30720.7  30953.4  31189.1  31427.9  31669.9  31915.3  32164.2
 U, KJ/KG         21419.8  21605.8  21794.7  21986.4  22181.1  22378.9  22579.9  22784.3
 G, KJ/KG       -187158.4-188152.8-189148.2-190144.6-191142.2-192140.8-193140.5-194141.3
 S, KJ/(KG)(K)    99.3833  99.4879  99.5935  99.6999  99.8072  99.9155 100.0248 100.1352

 M, (1/n)           2.007    2.007    2.006    2.006    2.005    2.005    2.004    2.003
 (dLV/dLP)t      -1.00212 -1.00225 -1.00238 -1.00251 -1.00266 -1.00280 -1.00296 -1.00312
 (dLV/dLT)p        1.0531   1.0559   1.0589   1.0620   1.0652   1.0686   1.0721   1.0757
 Cp, KJ/(KG)(K)   22.8307  23.1175  23.4147  23.7227  24.0416  24.3718  24.7136  25.0672
 GAMMAs            1.2486   1.2462   1.2439   1.2416   1.2392   1.2369   1.2346   1.2322
 SON VEL,M/SEC     3365.4   3370.4   3375.3   3380.2   3385.1   3390.0   3394.9   3399.8

 TRANSPORT PROPERTIES (GASES ONLY)
   CONDUCTIVITY IN UNITS OF MILLIWATTS/(CM)(K)

 VISC,MILLIPOISE  0.35998  0.36131  0.36263  0.36397  0.36531  0.36665  0.36800  0.36936

  WITH EQUILIBRIUM REACTIONS

 Cp, KJ/(KG)(K)   22.8307  23.1175  23.4147  23.7227  24.0416  24.3718  24.7136  25.0672
 CONDUCTIVITY     14.2535  14.5801  14.9190  15.2707  15.6355  16.0138  16.4059  16.8124
 PRANDTL NUMBER    0.5766   0.5729   0.5691   0.5654   0.5617   0.5580   0.5544   0.5507

  WITH FROZEN REACTIONS

 Cp, KJ/(KG)(K)   17.3327  17.3493  17.3658  17.3823  17.3987  17.4151  17.4314  17.4478
 CONDUCTIVITY      8.8731   8.9150   8.9571   8.9994   9.0419   9.0847   9.1278   9.1711
 PRANDTL NUMBER    0.7032   0.7031   0.7031   0.7030   0.7029   0.7029   0.7028   0.7027

 MASS FRACTIONS

 *H               0.00427  0.00452  0.00478  0.00505  0.00534  0.00564  0.00596  0.00629
 *H2              0.99573  0.99548  0.99522  0.99495  0.99466  0.99436  0.99404  0.99371

  * THERMODYNAMIC PROPERTIES FITTED TO 20000.K

 NOTE. WEIGHT FRACTION OF FUEL IN TOTAL FUELS AND OF OXIDANT IN TOTAL OXIDANTS









               THERMODYNAMIC EQUILIBRIUM PROPERTIES AT ASSIGNED

                           TEMPERATURE AND PRESSURE

 CASE =                

             REACTANT                    WT FRACTION      ENERGY      TEMP
                                          (SEE NOTE)     KJ/KG-MOL      K  
 FUEL        H2                           1.0000000         0.000      0.000
 OXIDANT     H2                           1.0000000         0.000      0.000

 O/F=    1.00000  %FUEL= 50.000000  R,EQ.RATIO= 0.000000  PHI,EQ.RATIO=-1.000000

 THERMODYNAMIC PROPERTIES

 P, BAR           0.39000  0.39000  0.39000  0.44000  0.44000  0.44000  0.44000  0.44000
 T, K             2270.00  2280.00  2290.00  2150.00  2160.00  2170.00  2180.00  2190.00
 RHO, KG/CU M    4.1381-3 4.1184-3 4.0989-3 4.9461-3 4.9222-3 4.8986-3 4.8751-3 4.8517-3
 H, KJ/KG         32416.7  32672.9  32933.0  29554.6  29770.9  29989.6  30210.8  30434.6
 U, KJ/KG         22992.0  23203.3  23418.3  20658.7  20831.9  21007.4  21185.3  21365.6
 G, KJ/KG       -195143.2-196146.2-197150.4-182118.2-183103.2-184089.2-185076.2-186064.3
 S, KJ/(KG)(K)   100.2467 100.3593 100.4731  98.4524  98.5528  98.6538  98.7555  98.8579

 M, (1/n)           2.003    2.002    2.001    2.009    2.009    2.009    2.008    2.008
 (dLV/dLP)t      -1.00329 -1.00347 -1.00366 -1.00159 -1.00168 -1.00178 -1.00189 -1.00200
 (dLV/dLT)p        1.0795   1.0834   1.0875   1.0404   1.0426   1.0450   1.0474   1.0500
 Cp, KJ/(KG)(K)   25.4330  25.8113  26.2024  21.5170  21.7514  21.9945  22.2466  22.5081
 GAMMAs            1.2299   1.2276   1.2253   1.2603   1.2581   1.2558   1.2536   1.2513
 SON VEL,M/SEC     3404.7   3409.6   3414.5   3348.4   3353.5   3358.6   3363.7   3368.7

 TRANSPORT PROPERTIES (GASES ONLY)
   CONDUCTIVITY IN UNITS OF MILLIWATTS/(CM)(K)

 VISC,MILLIPOISE  0.37072  0.37210  0.37347  0.35466  0.35596  0.35726  0.35857  0.35988

  WITH EQUILIBRIUM REACTIONS

 Cp, KJ/(KG)(K)   25.4330  25.8113  26.2024  21.5170  21.7514  21.9945  22.2466  22.5081
 CONDUCTIVITY     17.2335  17.6698  18.1215  12.8059  13.0727  13.3498  13.6374  13.9360
 PRANDTL NUMBER    0.5471   0.5435   0.5400   0.5959   0.5923   0.5886   0.5849   0.5812

  WITH FROZEN REACTIONS

 Cp, KJ/(KG)(K)   17.4640  17.4803  17.4965  17.2653  17.2821  17.2987  17.3153  17.3319
 CONDUCTIVITY      9.2147   9.2586   9.3027   8.7047   8.7455   8.7866   8.8278   8.8693
 PRANDTL NUMBER    0.7026   0.7025   0.7024   0.7035   0.7034   0.7034   0.7033   0.7033

 MASS FRACTIONS

 *H               0.00663  0.00699  0.00737  0.00318  0.00338  0.00358  0.00379  0.00402
 *H2              0.99337  0.99301  0.99263  0.99682  0.99662  0.99642  0.99621  0.99598

  * THERMODYNAMIC PROPERTIES FITTED TO 20000.K

 NOTE. WEIGHT FRACTION OF FUEL IN TOTAL FUELS AND OF OXIDANT IN TOTAL OXIDANTS









               THERMODYNAMIC EQUILIBRIUM PROPERTIES AT ASSIGNED

                           TEMPERATURE AND PRESSURE

 CASE =                

             REACTANT                    WT FRACTION      ENERGY      TEMP
                                          (SEE NOTE)     KJ/KG-MOL      K  
 FUEL        H2                           1.0000000         0.000      0.000
 OXIDANT     H2                           1.0000000         0.000      0.000

 O/F=    1.00000  %FUEL= 50.000000  R,EQ.RATIO= 0.000000  PHI,EQ.RATIO=-1.000000

 THERMODYNAMIC PROPERTIES

 P, BAR           0.44000  0.44000  0.44000  0.44000  0.44000  0.44000  0.44000  0.44000
 T, K             2200.00  2210.00  2220.00  2230.00  2240.00  2250.00  2260.00  2270.00
 RHO, KG/CU M    4.8285-3 4.8055-3 4.7826-3 4.7599-3 4.7373-3 4.7149-3 4.6926-3 4.6704-3
 H, KJ/KG         30661.0  30890.2  31122.3  31357.3  31595.3  31836.6  32081.1  32329.0
 U, KJ/KG         21548.5  21734.1  21922.3  22113.4  22307.4  22504.4  22704.5  22907.9
 G, KJ/KG       -187053.4-188043.5-189034.7-190026.9-191020.2-192014.6-193010.0-194006.5
 S, KJ/(KG)(K)    98.9611  99.0650  99.1698  99.2754  99.3819  99.4894  99.5978  99.7073

 M, (1/n)           2.007    2.007    2.006    2.006    2.005    2.005    2.004    2.003
 (dLV/dLP)t      -1.00212 -1.00224 -1.00237 -1.00250 -1.00264 -1.00279 -1.00294 -1.00310
 (dLV/dLT)p        1.0527   1.0555   1.0584   1.0614   1.0646   1.0679   1.0713   1.0749
 Cp, KJ/(KG)(K)   22.7790  23.0598  23.3506  23.6518  23.9636  24.2863  24.6201  24.9654
 GAMMAs            1.2490   1.2468   1.2445   1.2422   1.2399   1.2376   1.2353   1.2330
 SON VEL,M/SEC     3373.7   3378.7   3383.6   3388.6   3393.5   3398.4   3403.3   3408.2

 TRANSPORT PROPERTIES (GASES ONLY)
   CONDUCTIVITY IN UNITS OF MILLIWATTS/(CM)(K)

 VISC,MILLIPOISE  0.36120  0.36252  0.36385  0.36518  0.36652  0.36787  0.36921  0.37057

  WITH EQUILIBRIUM REACTIONS

 Cp, KJ/(KG)(K)   22.7790  23.0598  23.3506  23.6518  23.9636  24.2863  24.6201  24.9654
 CONDUCTIVITY     14.2459  14.5674  14.9009  15.2467  15.6053  15.9769  16.3621  16.7611
 PRANDTL NUMBER    0.5776   0.5739   0.5702   0.5665   0.5628   0.5592   0.5556   0.5520

  WITH FROZEN REACTIONS

 Cp, KJ/(KG)(K)   17.3484  17.3649  17.3813  17.3977  17.4140  17.4303  17.4466  17.4628
 CONDUCTIVITY      8.9109   8.9528   8.9948   9.0371   9.0796   9.1224   9.1654   9.2087
 PRANDTL NUMBER    0.7032   0.7032   0.7031   0.7030   0.7030   0.7029   0.7028   0.7027

 MASS FRACTIONS

 *H               0.00425  0.00450  0.00476  0.00503  0.00531  0.00561  0.00592  0.00624
 *H2              0.99575  0.99550  0.99524  0.99497  0.99469  0.99439  0.99408  0.99376

  * THERMODYNAMIC PROPERTIES FITTED TO 20000.K

 NOTE. WEIGHT FRACTION OF FUEL IN TOTAL FUELS AND OF OXIDANT IN TOTAL OXIDANTS









               THERMODYNAMIC EQUILIBRIUM PROPERTIES AT ASSIGNED

                           TEMPERATURE AND PRESSURE

 CASE =                

             REACTANT                    WT FRACTION      ENERGY      TEMP
                                          (SEE NOTE)     KJ/KG-MOL      K  
 FUEL        H2                           1.0000000         0.000      0.000
 OXIDANT     H2                           1.0000000         0.000      0.000

 O/F=    1.00000  %FUEL= 50.000000  R,EQ.RATIO= 0.000000  PHI,EQ.RATIO=-1.000000

 THERMODYNAMIC PROPERTIES

 P, BAR           0.44000  0.44000  0.49000  0.49000  0.49000  0.49000  0.49000  0.49000
 T, K             2280.00  2290.00  2150.00  2160.00  2170.00  2180.00  2190.00  2200.00
 RHO, KG/CU M    4.6483-3 4.6264-3 5.5091-3 5.4825-3 5.4562-3 5.4301-3 5.4042-3 5.3784-3
 H, KJ/KG         32580.4  32835.5  29516.9  29731.0  29947.3  30166.0  30387.1  30610.7
 U, KJ/KG         23114.7  23324.9  20622.5  20793.5  20966.8  21142.2  21320.0  21500.2
 G, KJ/KG       -195004.2-196002.9-181160.8-182141.1-183122.5-184104.9-185088.3-186072.7
 S, KJ/(KG)(K)    99.8178  99.9294  97.9896  98.0889  98.1889  98.2894  98.3906  98.4925

 M, (1/n)           2.003    2.002    2.010    2.009    2.009    2.009    2.008    2.008
 (dLV/dLP)t      -1.00327 -1.00344 -1.00150 -1.00160 -1.00169 -1.00179 -1.00190 -1.00201
 (dLV/dLT)p        1.0786   1.0824   1.0383   1.0404   1.0426   1.0450   1.0474   1.0499
 Cp, KJ/(KG)(K)   25.3225  25.6915  21.2937  21.5166  21.7478  21.9876  22.2362  22.4938
 GAMMAs            1.2307   1.2284   1.2625   1.2603   1.2581   1.2559   1.2537   1.2515
 SON VEL,M/SEC     3413.2   3418.1   3351.0   3356.2   3361.4   3366.5   3371.6   3376.6

 TRANSPORT PROPERTIES (GASES ONLY)
   CONDUCTIVITY IN UNITS OF MILLIWATTS/(CM)(K)

 VISC,MILLIPOISE  0.37193  0.37330  0.35459  0.35589  0.35719  0.35849  0.35980  0.36112

  WITH EQUILIBRIUM REACTIONS

 Cp, KJ/(KG)(K)   25.3225  25.6915  21.2937  21.5166  21.7478  21.9876  22.2362  22.4938
 CONDUCTIVITY     17.1744  17.6023  12.5892  12.8440  13.1087  13.3833  13.6683  13.9641
 PRANDTL NUMBER    0.5484   0.5449   0.5998   0.5962   0.5926   0.5890   0.5853   0.5817

  WITH FROZEN REACTIONS

 Cp, KJ/(KG)(K)   17.4790  17.4951  17.2648  17.2815  17.2981  17.3147  17.3312  17.3477
 CONDUCTIVITY      9.2522   9.2960   8.7021   8.7428   8.7837   8.8248   8.8660   8.9075
 PRANDTL NUMBER    0.7026   0.7026   0.7035   0.7035   0.7034   0.7034   0.7033   0.7033

 MASS FRACTIONS

 *H               0.00658  0.00694  0.00302  0.00320  0.00339  0.00360  0.00381  0.00403
 *H2              0.99342  0.99306  0.99698  0.99680  0.99661  0.99640  0.99619  0.99597

  * THERMODYNAMIC PROPERTIES FITTED TO 20000.K

 NOTE. WEIGHT FRACTION OF FUEL IN TOTAL FUELS AND OF OXIDANT IN TOTAL OXIDANTS









               THERMODYNAMIC EQUILIBRIUM PROPERTIES AT ASSIGNED

                           TEMPERATURE AND PRESSURE

 CASE =                

             REACTANT                    WT FRACTION      ENERGY      TEMP
                                          (SEE NOTE)     KJ/KG-MOL      K  
 FUEL        H2                           1.0000000         0.000      0.000
 OXIDANT     H2                           1.0000000         0.000      0.000

 O/F=    1.00000  %FUEL= 50.000000  R,EQ.RATIO= 0.000000  PHI,EQ.RATIO=-1.000000

 THERMODYNAMIC PROPERTIES

 P, BAR           0.49000  0.49000  0.49000  0.49000  0.49000  0.49000  0.49000  0.49000
 T, K             2210.00  2220.00  2230.00  2240.00  2250.00  2260.00  2270.00  2280.00
 RHO, KG/CU M    5.3528-3 5.3274-3 5.3022-3 5.2771-3 5.2522-3 5.2274-3 5.2028-3 5.1783-3
 H, KJ/KG         30837.0  31066.0  31297.8  31532.5  31770.2  32011.0  32255.1  32502.5
 U, KJ/KG         21683.0  21868.3  22056.3  22247.1  22440.7  22637.4  22837.1  23040.0
 G, KJ/KG       -187058.2-188044.6-189032.1-190020.7-191010.3-192001.0-192992.7-193985.5
 S, KJ/(KG)(K)    98.5951  98.6985  98.8026  98.9077  99.0135  99.1203  99.2281  99.3368

 M, (1/n)           2.007    2.007    2.006    2.006    2.005    2.005    2.004    2.003
 (dLV/dLP)t      -1.00212 -1.00224 -1.00237 -1.00250 -1.00264 -1.00279 -1.00294 -1.00310
 (dLV/dLT)p        1.0526   1.0553   1.0582   1.0612   1.0643   1.0676   1.0710   1.0745
 Cp, KJ/(KG)(K)   22.7607  23.0371  23.3233  23.6196  23.9262  24.2433  24.5713  24.9105
 GAMMAs            1.2492   1.2470   1.2447   1.2425   1.2402   1.2379   1.2357   1.2334
 SON VEL,M/SEC     3381.6   3386.6   3391.6   3396.6   3401.5   3406.5   3411.4   3416.3

 TRANSPORT PROPERTIES (GASES ONLY)
   CONDUCTIVITY IN UNITS OF MILLIWATTS/(CM)(K)

 VISC,MILLIPOISE  0.36243  0.36375  0.36508  0.36641  0.36775  0.36909  0.37044  0.37179

  WITH EQUILIBRIUM REACTIONS

 Cp, KJ/(KG)(K)   22.7607  23.0371  23.3233  23.6196  23.9262  24.2433  24.5713  24.9105
 CONDUCTIVITY     14.2708  14.5890  14.9189  15.2608  15.6152  15.9824  16.3627  16.7566
 PRANDTL NUMBER    0.5780   0.5744   0.5707   0.5671   0.5635   0.5599   0.5563   0.5527

  WITH FROZEN REACTIONS

 Cp, KJ/(KG)(K)   17.3641  17.3805  17.3968  17.4131  17.4294  17.4456  17.4618  17.4779
 CONDUCTIVITY      8.9491   8.9910   9.0331   9.0753   9.1179   9.1606   9.2036   9.2469
 PRANDTL NUMBER    0.7032   0.7032   0.7031   0.7030   0.7030   0.7029   0.7028   0.7027

 MASS FRACTIONS

 *H               0.00426  0.00451  0.00476  0.00503  0.00531  0.00561  0.00592  0.00624
 *H2              0.99574  0.99549  0.99524  0.99497  0.99469  0.99439  0.99408  0.99376

  * THERMODYNAMIC PROPERTIES FITTED TO 20000.K

 NOTE. WEIGHT FRACTION OF FUEL IN TOTAL FUELS AND OF OXIDANT IN TOTAL OXIDANTS









               THERMODYNAMIC EQUILIBRIUM PROPERTIES AT ASSIGNED

                           TEMPERATURE AND PRESSURE

 CASE =                

             REACTANT                    WT FRACTION      ENERGY      TEMP
                                          (SEE NOTE)     KJ/KG-MOL      K  
 FUEL        H2                           1.0000000         0.000      0.000
 OXIDANT     H2                           1.0000000         0.000      0.000

 O/F=    1.00000  %FUEL= 50.000000  R,EQ.RATIO= 0.000000  PHI,EQ.RATIO=-1.000000

 THERMODYNAMIC PROPERTIES

 P, BAR           0.49000
 T, K             2290.00
 RHO, KG/CU M    5.1540-3
 H, KJ/KG         32753.3
 U, KJ/KG         23246.1
 G, KJ/KG       -194979.4
 S, KJ/(KG)(K)    99.4466

 M, (1/n)           2.003
 (dLV/dLP)t      -1.00327
 (dLV/dLT)p        1.0782
 Cp, KJ/(KG)(K)   25.2610
 GAMMAs            1.2312
 SON VEL,M/SEC     3421.3

 TRANSPORT PROPERTIES (GASES ONLY)
   CONDUCTIVITY IN UNITS OF MILLIWATTS/(CM)(K)

 VISC,MILLIPOISE  0.37316

  WITH EQUILIBRIUM REACTIONS

 Cp, KJ/(KG)(K)   25.2610
 CONDUCTIVITY     17.1643
 PRANDTL NUMBER    0.5492

  WITH FROZEN REACTIONS

 Cp, KJ/(KG)(K)   17.4940
 CONDUCTIVITY      9.2904
 PRANDTL NUMBER    0.7027

 MASS FRACTIONS

 *H               0.00657
 *H2              0.99343

  * THERMODYNAMIC PROPERTIES FITTED TO 20000.K

 NOTE. WEIGHT FRACTION OF FUEL IN TOTAL FUELS AND OF OXIDANT IN TOTAL OXIDANTS



  
