
 *******************************************************************************

         NASA-GLENN CHEMICAL EQUILIBRIUM PROGRAM CEA2, MAY 21, 2004
                   BY  BONNIE MCBRIDE AND SANFORD GORDON
      REFS: NASA RP-1311, PART I, 1994 AND NASA RP-1311, PART II, 1996

 *******************************************************************************



  prob tp ions
  p,bar= 280.0,310.0,350.0,390.0,440.0,490.0,540.0,600.0,670.0,740.0,825.0,910.0
  t,k= 5150,5160,5170,5180,5190,5200,5210,5220,5230,5240,5250,5260,5270,5280,5290
  
  
  reac
  fuel H2                wt%=100.0000
  oxid H2                wt%=100.0000
  
  output short
  
  output massf
  
  output siunits
  
  output transport
  
 end





               THERMODYNAMIC EQUILIBRIUM PROPERTIES AT ASSIGNED

                           TEMPERATURE AND PRESSURE

 CASE =                

             REACTANT                    WT FRACTION      ENERGY      TEMP
                                          (SEE NOTE)     KJ/KG-MOL      K  
 FUEL        H2                           1.0000000         0.000      0.000
 OXIDANT     H2                           1.0000000         0.000      0.000

 O/F=    1.00000  %FUEL= 50.000000  R,EQ.RATIO= 0.000000  PHI,EQ.RATIO=-1.000000

 THERMODYNAMIC PROPERTIES

 P, BAR            280.00   280.00   280.00   280.00   280.00   280.00   280.00   280.00
 T, K             5150.00  5160.00  5170.00  5180.00  5190.00  5200.00  5210.00  5220.00
 RHO, KG/CU M    1.0797 0 1.0757 0 1.0716 0 1.0676 0 1.0636 0 1.0596 0 1.0556 0 1.0517 0
 H, KJ/KG        136712.7 137428.4 138147.0 138868.1 139591.9 140318.3 141047.2 141778.8
 U, KJ/KG        110780.0 111398.2 112018.7 112641.4 113266.3 113893.4 114522.7 115154.1
 G, KJ/KG       -376211.7-377207.0-378205.0-379204.4-380205.3-381207.5-382211.2-383216.2
 S, KJ/(KG)(K)    99.5970  99.7355  99.8747 100.0140 100.1536 100.2934 100.4335 100.5738

 M, (1/n)           1.651    1.648    1.645    1.642    1.639    1.636    1.633    1.630
 (dLV/dLP)t      -1.08604 -1.08666 -1.08727 -1.08789 -1.08850 -1.08911 -1.08972 -1.09032
 (dLV/dLT)p        1.9339   1.9388   1.9436   1.9484   1.9532   1.9579   1.9626   1.9672
 Cp, KJ/(KG)(K)   71.4481  71.7165  71.9823  72.2463  72.5085  72.7688  73.0272  73.2836
 GAMMAs            1.2159   1.2162   1.2165   1.2168   1.2171   1.2174   1.2177   1.2181
 SON VEL,M/SEC     5615.2   5626.5   5637.8   5649.1   5660.5   5671.9   5683.3   5694.8

 TRANSPORT PROPERTIES (GASES ONLY)
   CONDUCTIVITY IN UNITS OF MILLIWATTS/(CM)(K)

 VISC,MILLIPOISE  0.80984  0.81144  0.81303  0.81461  0.81618  0.81774  0.81930  0.82084

  WITH EQUILIBRIUM REACTIONS

 Cp, KJ/(KG)(K)   71.4479  71.7165  71.9823  72.2463  72.5085  72.7688  73.0272  73.2836
 CONDUCTIVITY    109.0096 109.4891 109.9643 110.4353 110.9021 111.3645 111.8225 112.2760
 PRANDTL NUMBER    0.5308   0.5315   0.5322   0.5329   0.5336   0.5343   0.5351   0.5358

  WITH FROZEN REACTIONS

 Cp, KJ/(KG)(K)   20.4082  20.4144  20.4206  20.4267  20.4328  20.4388  20.4448  20.4507
 CONDUCTIVITY     23.2032  23.2518  23.3006  23.3489  23.3968  23.4443  23.4914  23.5381
 PRANDTL NUMBER    0.7123   0.7124   0.7125   0.7127   0.7128   0.7129   0.7130   0.7132

 MASS FRACTIONS

 *H               0.22087  0.22309  0.22532  0.22756  0.22981  0.23208  0.23435  0.23664
 *H2              0.77913  0.77691  0.77468  0.77244  0.77019  0.76792  0.76565  0.76336

  * THERMODYNAMIC PROPERTIES FITTED TO 20000.K

 NOTE. WEIGHT FRACTION OF FUEL IN TOTAL FUELS AND OF OXIDANT IN TOTAL OXIDANTS









               THERMODYNAMIC EQUILIBRIUM PROPERTIES AT ASSIGNED

                           TEMPERATURE AND PRESSURE

 CASE =                

             REACTANT                    WT FRACTION      ENERGY      TEMP
                                          (SEE NOTE)     KJ/KG-MOL      K  
 FUEL        H2                           1.0000000         0.000      0.000
 OXIDANT     H2                           1.0000000         0.000      0.000

 O/F=    1.00000  %FUEL= 50.000000  R,EQ.RATIO= 0.000000  PHI,EQ.RATIO=-1.000000

 THERMODYNAMIC PROPERTIES

 P, BAR            280.00   280.00   280.00   280.00   280.00   280.00   280.00   310.00
 T, K             5230.00  5240.00  5250.00  5260.00  5270.00  5280.00  5290.00  5150.00
 RHO, KG/CU M    1.0477 0 1.0438 0 1.0398 0 1.0359 0 1.0320 0 1.0281 0 1.0242 0 1.2057 0
 H, KJ/KG        142512.9 143249.6 143988.7 144730.4 145474.5 146221.0 146970.0 134300.7
 U, KJ/KG        115787.7 116423.3 117061.1 117700.9 118342.8 118986.7 119632.7 108590.2
 G, KJ/KG       -384222.6-385230.5-386239.7-387250.4-388262.5-389276.0-390290.9-373582.2
 S, KJ/(KG)(K)   100.7143 100.8550 100.9959 101.1370 101.2784 101.4199 101.5616  98.6180

 M, (1/n)           1.627    1.624    1.621    1.618    1.615    1.612    1.609    1.665
 (dLV/dLP)t      -1.09092 -1.09152 -1.09212 -1.09271 -1.09331 -1.09389 -1.09448 -1.08307
 (dLV/dLT)p        1.9718   1.9764   1.9809   1.9854   1.9898   1.9941   1.9985   1.9016
 Cp, KJ/(KG)(K)   73.5380  73.7904  74.0407  74.2888  74.5348  74.7785  75.0200  69.2590
 GAMMAs            1.2184   1.2187   1.2191   1.2194   1.2198   1.2201   1.2205   1.2159
 SON VEL,M/SEC     5706.3   5717.9   5729.5   5741.1   5752.8   5764.4   5776.2   5591.3

 TRANSPORT PROPERTIES (GASES ONLY)
   CONDUCTIVITY IN UNITS OF MILLIWATTS/(CM)(K)

 VISC,MILLIPOISE  0.82238  0.82391  0.82542  0.82693  0.82843  0.82992  0.83140  0.80844

  WITH EQUILIBRIUM REACTIONS

 Cp, KJ/(KG)(K)   73.5380  73.7904  74.0407  74.2888  74.5348  74.7785  75.0200  69.2590
 CONDUCTIVITY    112.7250 113.1693 113.6090 114.0439 114.4740 114.8992 115.3195 106.0277
 PRANDTL NUMBER    0.5365   0.5372   0.5379   0.5387   0.5394   0.5401   0.5409   0.5281

  WITH FROZEN REACTIONS

 Cp, KJ/(KG)(K)   20.4565  20.4623  20.4681  20.4738  20.4794  20.4850  20.4905  20.4053
 CONDUCTIVITY     23.5843  23.6302  23.6756  23.7206  23.7651  23.8093  23.8530  23.1875
 PRANDTL NUMBER    0.7133   0.7135   0.7136   0.7137   0.7139   0.7140   0.7142   0.7114

 MASS FRACTIONS

 *H               0.23893  0.24124  0.24356  0.24589  0.24823  0.25058  0.25294  0.21040
 *H2              0.76107  0.75876  0.75644  0.75411  0.75177  0.74942  0.74706  0.78960

  * THERMODYNAMIC PROPERTIES FITTED TO 20000.K

 NOTE. WEIGHT FRACTION OF FUEL IN TOTAL FUELS AND OF OXIDANT IN TOTAL OXIDANTS









               THERMODYNAMIC EQUILIBRIUM PROPERTIES AT ASSIGNED

                           TEMPERATURE AND PRESSURE

 CASE =                

             REACTANT                    WT FRACTION      ENERGY      TEMP
                                          (SEE NOTE)     KJ/KG-MOL      K  
 FUEL        H2                           1.0000000         0.000      0.000
 OXIDANT     H2                           1.0000000         0.000      0.000

 O/F=    1.00000  %FUEL= 50.000000  R,EQ.RATIO= 0.000000  PHI,EQ.RATIO=-1.000000

 THERMODYNAMIC PROPERTIES

 P, BAR            310.00   310.00   310.00   310.00   310.00   310.00   310.00   310.00
 T, K             5160.00  5170.00  5180.00  5190.00  5200.00  5210.00  5220.00  5230.00
 RHO, KG/CU M    1.2013 0 1.1969 0 1.1924 0 1.1880 0 1.1836 0 1.1793 0 1.1749 0 1.1706 0
 H, KJ/KG        134994.6 135691.2 136390.3 137092.0 137796.4 138503.3 139212.7 139924.7
 U, KJ/KG        109189.0 109790.0 110393.2 110998.6 111606.1 112215.8 112827.6 113441.6
 G, KJ/KG       -374569.0-375557.2-376546.8-377537.7-378529.9-379523.6-380518.5-381514.9
 S, KJ/(KG)(K)    98.7526  98.8875  99.0226  99.1579  99.2935  99.4293  99.5654  99.7016

 M, (1/n)           1.663    1.660    1.657    1.654    1.651    1.648    1.645    1.642
 (dLV/dLP)t      -1.08368 -1.08429 -1.08490 -1.08551 -1.08612 -1.08672 -1.08733 -1.08793
 (dLV/dLT)p        1.9065   1.9114   1.9162   1.9210   1.9258   1.9305   1.9352   1.9398
 Cp, KJ/(KG)(K)   69.5225  69.7845  70.0449  70.3038  70.5610  70.8166  71.0705  71.3227
 GAMMAs            1.2162   1.2165   1.2168   1.2171   1.2174   1.2177   1.2181   1.2184
 SON VEL,M/SEC     5602.3   5613.3   5624.4   5635.5   5646.7   5657.9   5669.1   5680.3

 TRANSPORT PROPERTIES (GASES ONLY)
   CONDUCTIVITY IN UNITS OF MILLIWATTS/(CM)(K)

 VISC,MILLIPOISE  0.81007  0.81170  0.81332  0.81493  0.81653  0.81812  0.81971  0.82128

  WITH EQUILIBRIUM REACTIONS

 Cp, KJ/(KG)(K)   69.5225  69.7844  70.0449  70.3038  70.5610  70.8166  71.0705  71.3227
 CONDUCTIVITY    106.5108 106.9903 107.4661 107.9381 108.4063 108.8705 109.3308 109.7871
 PRANDTL NUMBER    0.5288   0.5294   0.5301   0.5308   0.5315   0.5322   0.5329   0.5335

  WITH FROZEN REACTIONS

 Cp, KJ/(KG)(K)   20.4116  20.4178  20.4240  20.4301  20.4362  20.4422  20.4482  20.4541
 CONDUCTIVITY     23.2381  23.2883  23.3382  23.3876  23.4367  23.4853  23.5336  23.5814
 PRANDTL NUMBER    0.7115   0.7116   0.7118   0.7119   0.7120   0.7121   0.7122   0.7124

 MASS FRACTIONS

 *H               0.21253  0.21466  0.21681  0.21897  0.22114  0.22332  0.22551  0.22771
 *H2              0.78747  0.78534  0.78319  0.78103  0.77886  0.77668  0.77449  0.77229

  * THERMODYNAMIC PROPERTIES FITTED TO 20000.K

 NOTE. WEIGHT FRACTION OF FUEL IN TOTAL FUELS AND OF OXIDANT IN TOTAL OXIDANTS









               THERMODYNAMIC EQUILIBRIUM PROPERTIES AT ASSIGNED

                           TEMPERATURE AND PRESSURE

 CASE =                

             REACTANT                    WT FRACTION      ENERGY      TEMP
                                          (SEE NOTE)     KJ/KG-MOL      K  
 FUEL        H2                           1.0000000         0.000      0.000
 OXIDANT     H2                           1.0000000         0.000      0.000

 O/F=    1.00000  %FUEL= 50.000000  R,EQ.RATIO= 0.000000  PHI,EQ.RATIO=-1.000000

 THERMODYNAMIC PROPERTIES

 P, BAR            310.00   310.00   310.00   310.00   310.00   310.00   350.00   350.00
 T, K             5240.00  5250.00  5260.00  5270.00  5280.00  5290.00  5150.00  5160.00
 RHO, KG/CU M    1.1662 0 1.1619 0 1.1576 0 1.1533 0 1.1490 0 1.1448 0 1.3748 0 1.3698 0
 H, KJ/KG        140639.1 141356.1 142075.6 142797.5 143521.8 144248.6 131560.6 132229.3
 U, KJ/KG        114057.6 114675.7 115295.9 115918.2 116542.5 117168.8 106102.6 106678.9
 G, KJ/KG       -382512.6-383511.6-384512.1-385513.9-386517.0-387521.6-370477.4-371452.9
 S, KJ/(KG)(K)    99.8381  99.9748 100.1117 100.2488 100.3862 100.5237  97.4831  97.6128

 M, (1/n)           1.639    1.636    1.633    1.630    1.627    1.624    1.682    1.679
 (dLV/dLP)t      -1.08853 -1.08913 -1.08972 -1.09031 -1.09091 -1.09149 -1.07955 -1.08016
 (dLV/dLT)p        1.9445   1.9490   1.9536   1.9581   1.9625   1.9669   1.8635   1.8684
 Cp, KJ/(KG)(K)   71.5731  71.8217  72.0685  72.3134  72.5563  72.7973  66.7306  66.9880
 GAMMAs            1.2187   1.2190   1.2193   1.2197   1.2200   1.2203   1.2161   1.2164
 SON VEL,M/SEC     5691.6   5703.0   5714.3   5725.7   5737.1   5748.6   5564.1   5574.8

 TRANSPORT PROPERTIES (GASES ONLY)
   CONDUCTIVITY IN UNITS OF MILLIWATTS/(CM)(K)

 VISC,MILLIPOISE  0.82285  0.82442  0.82597  0.82751  0.82905  0.83057  0.80655  0.80822

  WITH EQUILIBRIUM REACTIONS

 Cp, KJ/(KG)(K)   71.5731  71.8217  72.0685  72.3134  72.5563  72.7973  66.7305  66.9880
 CONDUCTIVITY    110.2393 110.6873 111.1310 111.5705 112.0055 112.4362 102.4986 102.9833
 PRANDTL NUMBER    0.5342   0.5349   0.5356   0.5363   0.5371   0.5378   0.5251   0.5257

  WITH FROZEN REACTIONS

 Cp, KJ/(KG)(K)   20.4599  20.4657  20.4715  20.4772  20.4828  20.4884  20.4020  20.4084
 CONDUCTIVITY     23.6289  23.6760  23.7226  23.7689  23.8147  23.8602  23.1612  23.2134
 PRANDTL NUMBER    0.7125   0.7126   0.7128   0.7129   0.7131   0.7132   0.7105   0.7106

 MASS FRACTIONS

 *H               0.22992  0.23214  0.23437  0.23662  0.23887  0.24113  0.19852  0.20053
 *H2              0.77008  0.76786  0.76563  0.76338  0.76113  0.75887  0.80148  0.79947

  * THERMODYNAMIC PROPERTIES FITTED TO 20000.K

 NOTE. WEIGHT FRACTION OF FUEL IN TOTAL FUELS AND OF OXIDANT IN TOTAL OXIDANTS









               THERMODYNAMIC EQUILIBRIUM PROPERTIES AT ASSIGNED

                           TEMPERATURE AND PRESSURE

 CASE =                

             REACTANT                    WT FRACTION      ENERGY      TEMP
                                          (SEE NOTE)     KJ/KG-MOL      K  
 FUEL        H2                           1.0000000         0.000      0.000
 OXIDANT     H2                           1.0000000         0.000      0.000

 O/F=    1.00000  %FUEL= 50.000000  R,EQ.RATIO= 0.000000  PHI,EQ.RATIO=-1.000000

 THERMODYNAMIC PROPERTIES

 P, BAR            350.00   350.00   350.00   350.00   350.00   350.00   350.00   350.00
 T, K             5170.00  5180.00  5190.00  5200.00  5210.00  5220.00  5230.00  5240.00
 RHO, KG/CU M    1.3649 0 1.3600 0 1.3550 0 1.3501 0 1.3452 0 1.3404 0 1.3355 0 1.3306 0
 H, KJ/KG        132900.4 133574.1 134250.4 134929.2 135610.5 136294.3 136980.6 137669.4
 U, KJ/KG        107257.4 107838.0 108420.8 109005.6 109592.6 110181.7 110772.9 111366.2
 G, KJ/KG       -372429.7-373407.7-374387.1-375367.8-376349.8-377333.1-378317.7-379303.6
 S, KJ/(KG)(K)    97.7428  97.8729  98.0034  98.1340  98.2649  98.3961  98.5274  98.6590

 M, (1/n)           1.676    1.673    1.671    1.668    1.665    1.662    1.659    1.656
 (dLV/dLP)t      -1.08076 -1.08137 -1.08197 -1.08257 -1.08317 -1.08377 -1.08437 -1.08497
 (dLV/dLT)p        1.8732   1.8781   1.8829   1.8877   1.8924   1.8971   1.9018   1.9065
 Cp, KJ/(KG)(K)   67.2442  67.4991  67.7528  68.0051  68.2560  68.5056  68.7537  69.0003
 GAMMAs            1.2166   1.2169   1.2172   1.2175   1.2178   1.2181   1.2184   1.2187
 SON VEL,M/SEC     5585.5   5596.3   5607.1   5618.0   5628.9   5639.8   5650.8   5661.7

 TRANSPORT PROPERTIES (GASES ONLY)
   CONDUCTIVITY IN UNITS OF MILLIWATTS/(CM)(K)

 VISC,MILLIPOISE  0.80988  0.81154  0.81319  0.81483  0.81646  0.81809  0.81971  0.82132

  WITH EQUILIBRIUM REACTIONS

 Cp, KJ/(KG)(K)   67.2442  67.4991  67.7528  68.0051  68.2560  68.5056  68.7537  69.0003
 CONDUCTIVITY    103.4648 103.9432 104.4184 104.8903 105.3589 105.8240 106.2857 106.7438
 PRANDTL NUMBER    0.5264   0.5270   0.5276   0.5283   0.5289   0.5296   0.5303   0.5309

  WITH FROZEN REACTIONS

 Cp, KJ/(KG)(K)   20.4147  20.4209  20.4271  20.4332  20.4393  20.4453  20.4513  20.4572
 CONDUCTIVITY     23.2653  23.3168  23.3679  23.4186  23.4690  23.5190  23.5687  23.6179
 PRANDTL NUMBER    0.7106   0.7107   0.7108   0.7110   0.7111   0.7112   0.7113   0.7114

 MASS FRACTIONS

 *H               0.20256  0.20460  0.20664  0.20870  0.21077  0.21285  0.21494  0.21704
 *H2              0.79744  0.79540  0.79336  0.79130  0.78923  0.78715  0.78506  0.78296

  * THERMODYNAMIC PROPERTIES FITTED TO 20000.K

 NOTE. WEIGHT FRACTION OF FUEL IN TOTAL FUELS AND OF OXIDANT IN TOTAL OXIDANTS









               THERMODYNAMIC EQUILIBRIUM PROPERTIES AT ASSIGNED

                           TEMPERATURE AND PRESSURE

 CASE =                

             REACTANT                    WT FRACTION      ENERGY      TEMP
                                          (SEE NOTE)     KJ/KG-MOL      K  
 FUEL        H2                           1.0000000         0.000      0.000
 OXIDANT     H2                           1.0000000         0.000      0.000

 O/F=    1.00000  %FUEL= 50.000000  R,EQ.RATIO= 0.000000  PHI,EQ.RATIO=-1.000000

 THERMODYNAMIC PROPERTIES

 P, BAR            350.00   350.00   350.00   350.00   350.00   390.00   390.00   390.00
 T, K             5250.00  5260.00  5270.00  5280.00  5290.00  5150.00  5160.00  5170.00
 RHO, KG/CU M    1.3258 0 1.3210 0 1.3162 0 1.3114 0 1.3066 0 1.5449 0 1.5394 0 1.5340 0
 H, KJ/KG        138360.6 139054.3 139750.4 140448.9 141149.8 129238.0 129884.8 130534.1
 U, KJ/KG        111961.5 112558.9 113158.3 113759.8 114363.2 103994.0 104550.9 105109.9
 G, KJ/KG       -380290.9-381279.5-382269.4-383260.6-384253.1-367734.2-368699.8-369666.7
 S, KJ/(KG)(K)    98.7908  98.9228  99.0550  99.1874  99.3200  96.4995  96.6249  96.7506

 M, (1/n)           1.654    1.651    1.648    1.645    1.642    1.696    1.693    1.691
 (dLV/dLP)t      -1.08556 -1.08616 -1.08675 -1.08734 -1.08793 -1.07647 -1.07706 -1.07766
 (dLV/dLT)p        1.9111   1.9157   1.9202   1.9247   1.9292   1.8300   1.8348   1.8397
 Cp, KJ/(KG)(K)   69.2454  69.4889  69.7309  69.9713  70.2100  64.5551  64.8064  65.0566
 GAMMAs            1.2190   1.2193   1.2196   1.2199   1.2202   1.2163   1.2165   1.2168
 SON VEL,M/SEC     5672.8   5683.8   5694.9   5706.0   5717.2   5541.0   5551.5   5562.0

 TRANSPORT PROPERTIES (GASES ONLY)
   CONDUCTIVITY IN UNITS OF MILLIWATTS/(CM)(K)

 VISC,MILLIPOISE  0.82293  0.82453  0.82612  0.82770  0.82928  0.80469  0.80638  0.80807

  WITH EQUILIBRIUM REACTIONS

 Cp, KJ/(KG)(K)   69.2454  69.4889  69.7309  69.9713  70.2100  64.5551  64.8064  65.0566
 CONDUCTIVITY    107.1983 107.6491 108.0963 108.5396 108.9790  99.3887  99.8724 100.3534
 PRANDTL NUMBER    0.5316   0.5322   0.5329   0.5336   0.5343   0.5227   0.5233   0.5239

  WITH FROZEN REACTIONS

 Cp, KJ/(KG)(K)   20.4631  20.4689  20.4747  20.4804  20.4861  20.3993  20.4056  20.4120
 CONDUCTIVITY     23.6668  23.7153  23.7634  23.8111  23.8585  23.1310  23.1845  23.2377
 PRANDTL NUMBER    0.7115   0.7117   0.7118   0.7119   0.7121   0.7097   0.7097   0.7098

 MASS FRACTIONS

 *H               0.21915  0.22127  0.22340  0.22554  0.22769  0.18844  0.19036  0.19230
 *H2              0.78085  0.77873  0.77660  0.77446  0.77231  0.81156  0.80963  0.80770

  * THERMODYNAMIC PROPERTIES FITTED TO 20000.K

 NOTE. WEIGHT FRACTION OF FUEL IN TOTAL FUELS AND OF OXIDANT IN TOTAL OXIDANTS









               THERMODYNAMIC EQUILIBRIUM PROPERTIES AT ASSIGNED

                           TEMPERATURE AND PRESSURE

 CASE =                

             REACTANT                    WT FRACTION      ENERGY      TEMP
                                          (SEE NOTE)     KJ/KG-MOL      K  
 FUEL        H2                           1.0000000         0.000      0.000
 OXIDANT     H2                           1.0000000         0.000      0.000

 O/F=    1.00000  %FUEL= 50.000000  R,EQ.RATIO= 0.000000  PHI,EQ.RATIO=-1.000000

 THERMODYNAMIC PROPERTIES

 P, BAR            390.00   390.00   390.00   390.00   390.00   390.00   390.00   390.00
 T, K             5180.00  5190.00  5200.00  5210.00  5220.00  5230.00  5240.00  5250.00
 RHO, KG/CU M    1.5285 0 1.5231 0 1.5177 0 1.5123 0 1.5069 0 1.5015 0 1.4962 0 1.4908 0
 H, KJ/KG        131185.9 131840.2 132497.0 133156.2 133817.9 134482.1 135148.6 135817.6
 U, KJ/KG        105671.1 106234.4 106799.7 107367.1 107936.6 108508.2 109081.7 109657.3
 G, KJ/KG       -370634.8-371604.2-372574.9-373546.8-374520.0-375494.4-376470.2-377447.2
 S, KJ/(KG)(K)    96.8766  97.0028  97.1292  97.2559  97.3827  97.5098  97.6372  97.7647

 M, (1/n)           1.688    1.685    1.682    1.680    1.677    1.674    1.671    1.669
 (dLV/dLP)t      -1.07825 -1.07885 -1.07944 -1.08004 -1.08063 -1.08122 -1.08181 -1.08240
 (dLV/dLT)p        1.8445   1.8493   1.8540   1.8588   1.8635   1.8682   1.8728   1.8774
 Cp, KJ/(KG)(K)   65.3057  65.5537  65.8007  66.0464  66.2910  66.5344  66.7765  67.0174
 GAMMAs            1.2171   1.2173   1.2176   1.2179   1.2182   1.2184   1.2187   1.2190
 SON VEL,M/SEC     5572.5   5583.1   5593.7   5604.3   5614.9   5625.6   5636.4   5647.1

 TRANSPORT PROPERTIES (GASES ONLY)
   CONDUCTIVITY IN UNITS OF MILLIWATTS/(CM)(K)

 VISC,MILLIPOISE  0.80976  0.81144  0.81311  0.81477  0.81643  0.81809  0.81973  0.82137

  WITH EQUILIBRIUM REACTIONS

 Cp, KJ/(KG)(K)   65.3057  65.5537  65.8007  66.0464  66.2910  66.5344  66.7765  67.0174
 CONDUCTIVITY    100.8317 101.3072 101.7799 102.2497 102.7165 103.1802 103.6409 104.0985
 PRANDTL NUMBER    0.5245   0.5251   0.5257   0.5263   0.5269   0.5275   0.5282   0.5288

  WITH FROZEN REACTIONS

 Cp, KJ/(KG)(K)   20.4183  20.4245  20.4307  20.4368  20.4429  20.4489  20.4549  20.4608
 CONDUCTIVITY     23.2905  23.3429  23.3951  23.4468  23.4983  23.5493  23.6000  23.6504
 PRANDTL NUMBER    0.7099   0.7100   0.7101   0.7102   0.7103   0.7104   0.7105   0.7106

 MASS FRACTIONS

 *H               0.19424  0.19619  0.19815  0.20013  0.20211  0.20410  0.20611  0.20812
 *H2              0.80576  0.80381  0.80185  0.79987  0.79789  0.79590  0.79389  0.79188

  * THERMODYNAMIC PROPERTIES FITTED TO 20000.K

 NOTE. WEIGHT FRACTION OF FUEL IN TOTAL FUELS AND OF OXIDANT IN TOTAL OXIDANTS









               THERMODYNAMIC EQUILIBRIUM PROPERTIES AT ASSIGNED

                           TEMPERATURE AND PRESSURE

 CASE =                

             REACTANT                    WT FRACTION      ENERGY      TEMP
                                          (SEE NOTE)     KJ/KG-MOL      K  
 FUEL        H2                           1.0000000         0.000      0.000
 OXIDANT     H2                           1.0000000         0.000      0.000

 O/F=    1.00000  %FUEL= 50.000000  R,EQ.RATIO= 0.000000  PHI,EQ.RATIO=-1.000000

 THERMODYNAMIC PROPERTIES

 P, BAR            390.00   390.00   390.00   390.00   440.00   440.00   440.00   440.00
 T, K             5260.00  5270.00  5280.00  5290.00  5150.00  5160.00  5170.00  5180.00
 RHO, KG/CU M    1.4855 0 1.4802 0 1.4749 0 1.4696 0 1.7588 0 1.7527 0 1.7466 0 1.7405 0
 H, KJ/KG        136489.0 137162.7 137838.8 138517.3 126777.9 127401.3 128027.1 128655.4
 U, KJ/KG        110235.0 110814.6 111396.2 111979.8 101760.5 102296.7 102834.8 103375.1
 G, KJ/KG       -378425.5-379405.0-380385.9-381368.0-364702.8-365657.8-366613.9-367571.3
 S, KJ/(KG)(K)    97.8925  98.0204  98.1486  98.2770  95.4331  95.5541  95.6753  95.7967

 M, (1/n)           1.666    1.663    1.660    1.657    1.712    1.709    1.706    1.704
 (dLV/dLP)t      -1.08299 -1.08358 -1.08417 -1.08475 -1.07309 -1.07367 -1.07425 -1.07484
 (dLV/dLT)p        1.8820   1.8866   1.8911   1.8956   1.7933   1.7981   1.8028   1.8076
 Cp, KJ/(KG)(K)   67.2569  67.4951  67.7318  67.9672  62.2206  62.4642  62.7069  62.9488
 GAMMAs            1.2193   1.2196   1.2199   1.2202   1.2165   1.2168   1.2170   1.2173
 SON VEL,M/SEC     5657.9   5668.7   5679.6   5690.5   5516.7   5526.9   5537.1   5547.3

 TRANSPORT PROPERTIES (GASES ONLY)
   CONDUCTIVITY IN UNITS OF MILLIWATTS/(CM)(K)

 VISC,MILLIPOISE  0.82301  0.82464  0.82626  0.82787  0.80245  0.80417  0.80588  0.80759

  WITH EQUILIBRIUM REACTIONS

 Cp, KJ/(KG)(K)   67.2569  67.4951  67.7318  67.9672  62.2206  62.4642  62.7069  62.9488
 CONDUCTIVITY    104.5528 105.0039 105.4516 105.8960  95.9760  96.4563  96.9343  97.4101
 PRANDTL NUMBER    0.5294   0.5301   0.5307   0.5314   0.5202   0.5208   0.5213   0.5219

  WITH FROZEN REACTIONS

 Cp, KJ/(KG)(K)   20.4667  20.4725  20.4783  20.4840  20.3963  20.4028  20.4091  20.4155
 CONDUCTIVITY     23.7004  23.7500  23.7993  23.8482  23.0905  23.1453  23.1998  23.2539
 PRANDTL NUMBER    0.7107   0.7108   0.7110   0.7111   0.7088   0.7089   0.7089   0.7090

 MASS FRACTIONS

 *H               0.21014  0.21218  0.21422  0.21628  0.17777  0.17959  0.18142  0.18326
 *H2              0.78986  0.78782  0.78578  0.78372  0.82223  0.82041  0.81858  0.81674

  * THERMODYNAMIC PROPERTIES FITTED TO 20000.K

 NOTE. WEIGHT FRACTION OF FUEL IN TOTAL FUELS AND OF OXIDANT IN TOTAL OXIDANTS









               THERMODYNAMIC EQUILIBRIUM PROPERTIES AT ASSIGNED

                           TEMPERATURE AND PRESSURE

 CASE =                

             REACTANT                    WT FRACTION      ENERGY      TEMP
                                          (SEE NOTE)     KJ/KG-MOL      K  
 FUEL        H2                           1.0000000         0.000      0.000
 OXIDANT     H2                           1.0000000         0.000      0.000

 O/F=    1.00000  %FUEL= 50.000000  R,EQ.RATIO= 0.000000  PHI,EQ.RATIO=-1.000000

 THERMODYNAMIC PROPERTIES

 P, BAR            440.00   440.00   440.00   440.00   440.00   440.00   440.00   440.00
 T, K             5190.00  5200.00  5210.00  5220.00  5230.00  5240.00  5250.00  5260.00
 RHO, KG/CU M    1.7344 0 1.7284 0 1.7223 0 1.7163 0 1.7103 0 1.7043 0 1.6984 0 1.6924 0
 H, KJ/KG        129286.1 129919.2 130554.7 131192.6 131832.9 132475.5 133120.5 133767.8
 U, KJ/KG        103917.4 104461.7 105008.1 105556.4 106106.8 106659.2 107213.5 107769.8
 G, KJ/KG       -368529.8-369489.6-370450.6-371412.9-372376.3-373341.0-374306.9-375274.1
 S, KJ/(KG)(K)    95.9183  96.0402  96.1623  96.2846  96.4071  96.5299  96.6528  96.7760

 M, (1/n)           1.701    1.698    1.696    1.693    1.690    1.688    1.685    1.682
 (dLV/dLP)t      -1.07542 -1.07601 -1.07659 -1.07717 -1.07776 -1.07834 -1.07892 -1.07950
 (dLV/dLT)p        1.8124   1.8171   1.8218   1.8265   1.8311   1.8357   1.8404   1.8449
 Cp, KJ/(KG)(K)   63.1898  63.4299  63.6690  63.9072  64.1444  64.3805  64.6155  64.8495
 GAMMAs            1.2175   1.2178   1.2180   1.2183   1.2186   1.2188   1.2191   1.2194
 SON VEL,M/SEC     5557.6   5567.9   5578.2   5588.6   5599.0   5609.5   5619.9   5630.4

 TRANSPORT PROPERTIES (GASES ONLY)
   CONDUCTIVITY IN UNITS OF MILLIWATTS/(CM)(K)

 VISC,MILLIPOISE  0.80930  0.81100  0.81269  0.81438  0.81607  0.81774  0.81942  0.82109

  WITH EQUILIBRIUM REACTIONS

 Cp, KJ/(KG)(K)   63.1898  63.4299  63.6690  63.9072  64.1444  64.3805  64.6155  64.8495
 CONDUCTIVITY     97.8835  98.3545  98.8231  99.2892  99.7527 100.2136 100.6718 101.1272
 PRANDTL NUMBER    0.5225   0.5230   0.5236   0.5242   0.5248   0.5253   0.5259   0.5265

  WITH FROZEN REACTIONS

 Cp, KJ/(KG)(K)   20.4218  20.4280  20.4342  20.4403  20.4464  20.4525  20.4585  20.4644
 CONDUCTIVITY     23.3077  23.3612  23.4144  23.4672  23.5197  23.5719  23.6238  23.6753
 PRANDTL NUMBER    0.7091   0.7092   0.7093   0.7093   0.7094   0.7095   0.7096   0.7097

 MASS FRACTIONS

 *H               0.18511  0.18697  0.18884  0.19072  0.19261  0.19451  0.19642  0.19834
 *H2              0.81489  0.81303  0.81116  0.80928  0.80739  0.80549  0.80358  0.80166

  * THERMODYNAMIC PROPERTIES FITTED TO 20000.K

 NOTE. WEIGHT FRACTION OF FUEL IN TOTAL FUELS AND OF OXIDANT IN TOTAL OXIDANTS









               THERMODYNAMIC EQUILIBRIUM PROPERTIES AT ASSIGNED

                           TEMPERATURE AND PRESSURE

 CASE =                

             REACTANT                    WT FRACTION      ENERGY      TEMP
                                          (SEE NOTE)     KJ/KG-MOL      K  
 FUEL        H2                           1.0000000         0.000      0.000
 OXIDANT     H2                           1.0000000         0.000      0.000

 O/F=    1.00000  %FUEL= 50.000000  R,EQ.RATIO= 0.000000  PHI,EQ.RATIO=-1.000000

 THERMODYNAMIC PROPERTIES

 P, BAR            440.00   440.00   440.00   490.00   490.00   490.00   490.00   490.00
 T, K             5270.00  5280.00  5290.00  5150.00  5160.00  5170.00  5180.00  5190.00
 RHO, KG/CU M    1.6865 0 1.6806 0 1.6747 0 1.9738 0 1.9671 0 1.9603 0 1.9536 0 1.9469 0
 H, KJ/KG        134417.4 135069.4 135723.7 124693.3 125296.7 125902.4 126510.5 127120.9
 U, KJ/KG        108328.1 108888.4 109450.5  99868.0 100386.3 100906.6 101428.9 101953.2
 G, KJ/KG       -376242.5-377212.1-378182.9-362020.6-362966.3-363913.1-364861.1-365810.3
 S, KJ/(KG)(K)    96.8994  97.0230  97.1468  94.5076  94.6246  94.7419  94.8594  94.9771

 M, (1/n)           1.680    1.677    1.674    1.725    1.722    1.720    1.717    1.715
 (dLV/dLP)t      -1.08008 -1.08066 -1.08124 -1.07013 -1.07070 -1.07128 -1.07185 -1.07242
 (dLV/dLT)p        1.8495   1.8540   1.8585   1.7612   1.7659   1.7706   1.7753   1.7800
 Cp, KJ/(KG)(K)   65.0824  65.3141  65.5446  60.2193  60.4556  60.6912  60.9261  61.1602
 GAMMAs            1.2197   1.2200   1.2203   1.2168   1.2170   1.2173   1.2175   1.2177
 SON VEL,M/SEC     5641.0   5651.5   5662.1   5496.1   5506.0   5516.0   5526.0   5536.0

 TRANSPORT PROPERTIES (GASES ONLY)
   CONDUCTIVITY IN UNITS OF MILLIWATTS/(CM)(K)

 VISC,MILLIPOISE  0.82275  0.82440  0.82605  0.80032  0.80206  0.80379  0.80552  0.80724

  WITH EQUILIBRIUM REACTIONS

 Cp, KJ/(KG)(K)   65.0824  65.3141  65.5446  60.2193  60.4556  60.6912  60.9261  61.1602
 CONDUCTIVITY    101.5799 102.0297 102.4767  92.9882  93.4636  93.9372  94.4089  94.8786
 PRANDTL NUMBER    0.5271   0.5277   0.5283   0.5183   0.5188   0.5193   0.5198   0.5204

  WITH FROZEN REACTIONS

 Cp, KJ/(KG)(K)   20.4703  20.4761  20.4819  20.3938  20.4003  20.4067  20.4131  20.4194
 CONDUCTIVITY     23.7265  23.7773  23.8278  23.0490  23.1047  23.1602  23.2154  23.2703
 PRANDTL NUMBER    0.7098   0.7099   0.7101   0.7081   0.7082   0.7082   0.7083   0.7083

 MASS FRACTIONS

 *H               0.20027  0.20221  0.20416  0.16873  0.17046  0.17221  0.17396  0.17572
 *H2              0.79973  0.79779  0.79584  0.83127  0.82954  0.82779  0.82604  0.82428

  * THERMODYNAMIC PROPERTIES FITTED TO 20000.K

 NOTE. WEIGHT FRACTION OF FUEL IN TOTAL FUELS AND OF OXIDANT IN TOTAL OXIDANTS









               THERMODYNAMIC EQUILIBRIUM PROPERTIES AT ASSIGNED

                           TEMPERATURE AND PRESSURE

 CASE =                

             REACTANT                    WT FRACTION      ENERGY      TEMP
                                          (SEE NOTE)     KJ/KG-MOL      K  
 FUEL        H2                           1.0000000         0.000      0.000
 OXIDANT     H2                           1.0000000         0.000      0.000

 O/F=    1.00000  %FUEL= 50.000000  R,EQ.RATIO= 0.000000  PHI,EQ.RATIO=-1.000000

 THERMODYNAMIC PROPERTIES

 P, BAR            490.00   490.00   490.00   490.00   490.00   490.00   490.00   490.00
 T, K             5200.00  5210.00  5220.00  5230.00  5240.00  5250.00  5260.00  5270.00
 RHO, KG/CU M    1.9403 0 1.9336 0 1.9270 0 1.9204 0 1.9138 0 1.9072 0 1.9006 0 1.8941 0
 H, KJ/KG        127733.7 128348.8 128966.2 129586.0 130208.0 130832.3 131459.0 132087.9
 U, KJ/KG        102479.5 103007.7 103537.9 104070.1 104604.2 105140.3 105678.3 106218.2
 G, KJ/KG       -366760.7-367712.2-368664.9-369618.8-370573.9-371530.2-372487.7-373446.4
 S, KJ/(KG)(K)    95.0951  95.2132  95.3316  95.4502  95.5691  95.6881  95.8073  95.9268

 M, (1/n)           1.712    1.709    1.707    1.704    1.702    1.699    1.696    1.694
 (dLV/dLP)t      -1.07299 -1.07357 -1.07414 -1.07471 -1.07529 -1.07586 -1.07643 -1.07700
 (dLV/dLT)p        1.7847   1.7893   1.7940   1.7986   1.8032   1.8078   1.8123   1.8168
 Cp, KJ/(KG)(K)   61.3936  61.6263  61.8580  62.0890  62.3191  62.5483  62.7766  63.0040
 GAMMAs            1.2180   1.2182   1.2185   1.2187   1.2190   1.2193   1.2195   1.2198
 SON VEL,M/SEC     5546.1   5556.2   5566.3   5576.5   5586.7   5596.9   5607.1   5617.4

 TRANSPORT PROPERTIES (GASES ONLY)
   CONDUCTIVITY IN UNITS OF MILLIWATTS/(CM)(K)

 VISC,MILLIPOISE  0.80896  0.81068  0.81239  0.81410  0.81580  0.81750  0.81919  0.82088

  WITH EQUILIBRIUM REACTIONS

 Cp, KJ/(KG)(K)   61.3936  61.6263  61.8580  62.0890  62.3191  62.5483  62.7766  63.0040
 CONDUCTIVITY     95.3462  95.8118  96.2752  96.7364  97.1953  97.6520  98.1063  98.5582
 PRANDTL NUMBER    0.5209   0.5214   0.5220   0.5225   0.5231   0.5236   0.5242   0.5248

  WITH FROZEN REACTIONS

 Cp, KJ/(KG)(K)   20.4257  20.4320  20.4382  20.4443  20.4504  20.4564  20.4624  20.4684
 CONDUCTIVITY     23.3249  23.3792  23.4331  23.4868  23.5402  23.5932  23.6460  23.6984
 PRANDTL NUMBER    0.7084   0.7085   0.7086   0.7086   0.7087   0.7088   0.7089   0.7090

 MASS FRACTIONS

 *H               0.17749  0.17927  0.18107  0.18287  0.18468  0.18650  0.18833  0.19017
 *H2              0.82251  0.82073  0.81893  0.81713  0.81532  0.81350  0.81167  0.80983

  * THERMODYNAMIC PROPERTIES FITTED TO 20000.K

 NOTE. WEIGHT FRACTION OF FUEL IN TOTAL FUELS AND OF OXIDANT IN TOTAL OXIDANTS









               THERMODYNAMIC EQUILIBRIUM PROPERTIES AT ASSIGNED

                           TEMPERATURE AND PRESSURE

 CASE =                

             REACTANT                    WT FRACTION      ENERGY      TEMP
                                          (SEE NOTE)     KJ/KG-MOL      K  
 FUEL        H2                           1.0000000         0.000      0.000
 OXIDANT     H2                           1.0000000         0.000      0.000

 O/F=    1.00000  %FUEL= 50.000000  R,EQ.RATIO= 0.000000  PHI,EQ.RATIO=-1.000000

 THERMODYNAMIC PROPERTIES

 P, BAR            490.00   490.00   540.00   540.00   540.00   540.00   540.00   540.00
 T, K             5280.00  5290.00  5150.00  5160.00  5170.00  5180.00  5190.00  5200.00
 RHO, KG/CU M    1.8876 0 1.8811 0 2.1898 0 2.1824 0 2.1751 0 2.1678 0 2.1605 0 2.1532 0
 H, KJ/KG        132719.0 133352.5 122897.5 123483.5 124071.7 124662.2 125255.0 125850.1
 U, KJ/KG        106760.0 107303.7  98237.7  98740.5  99245.2  99751.9 100260.6 100771.1
 G, KJ/KG       -374406.2-375367.3-359616.6-360554.1-361492.7-362432.5-363373.4-364315.4
 S, KJ/(KG)(K)    96.0465  96.1663  93.6921  93.8057  93.9196  94.0337  94.1481  94.2626

 M, (1/n)           1.691    1.689    1.736    1.734    1.731    1.729    1.726    1.724
 (dLV/dLP)t      -1.07757 -1.07814 -1.06752 -1.06808 -1.06864 -1.06920 -1.06976 -1.07033
 (dLV/dLT)p        1.8213   1.8258   1.7328   1.7375   1.7422   1.7468   1.7514   1.7560
 Cp, KJ/(KG)(K)   63.2303  63.4557  58.4791  58.7085  58.9374  59.1657  59.3933  59.6203
 GAMMAs            1.2201   1.2203   1.2171   1.2173   1.2175   1.2177   1.2180   1.2182
 SON VEL,M/SEC     5627.7   5638.1   5478.4   5488.1   5497.9   5507.6   5517.5   5527.3

 TRANSPORT PROPERTIES (GASES ONLY)
   CONDUCTIVITY IN UNITS OF MILLIWATTS/(CM)(K)

 VISC,MILLIPOISE  0.82256  0.82424  0.79831  0.80006  0.80181  0.80355  0.80529  0.80703

  WITH EQUILIBRIUM REACTIONS

 Cp, KJ/(KG)(K)   63.2303  63.4557  58.4791  58.7085  58.9374  59.1657  59.3933  59.6203
 CONDUCTIVITY     99.0077  99.4546  90.3432  90.8131  91.2815  91.7481  92.2131  92.6764
 PRANDTL NUMBER    0.5253   0.5259   0.5167   0.5172   0.5177   0.5182   0.5187   0.5192

  WITH FROZEN REACTIONS

 Cp, KJ/(KG)(K)   20.4742  20.4801  20.3917  20.3982  20.4047  20.4111  20.4175  20.4238
 CONDUCTIVITY     23.7505  23.8023  23.0075  23.0641  23.1204  23.1764  23.2322  23.2876
 PRANDTL NUMBER    0.7091   0.7092   0.7075   0.7076   0.7076   0.7077   0.7077   0.7078

 MASS FRACTIONS

 *H               0.19202  0.19388  0.16094  0.16260  0.16427  0.16594  0.16763  0.16932
 *H2              0.80798  0.80612  0.83906  0.83740  0.83573  0.83406  0.83237  0.83068

  * THERMODYNAMIC PROPERTIES FITTED TO 20000.K

 NOTE. WEIGHT FRACTION OF FUEL IN TOTAL FUELS AND OF OXIDANT IN TOTAL OXIDANTS









               THERMODYNAMIC EQUILIBRIUM PROPERTIES AT ASSIGNED

                           TEMPERATURE AND PRESSURE

 CASE =                

             REACTANT                    WT FRACTION      ENERGY      TEMP
                                          (SEE NOTE)     KJ/KG-MOL      K  
 FUEL        H2                           1.0000000         0.000      0.000
 OXIDANT     H2                           1.0000000         0.000      0.000

 O/F=    1.00000  %FUEL= 50.000000  R,EQ.RATIO= 0.000000  PHI,EQ.RATIO=-1.000000

 THERMODYNAMIC PROPERTIES

 P, BAR            540.00   540.00   540.00   540.00   540.00   540.00   540.00   540.00
 T, K             5210.00  5220.00  5230.00  5240.00  5250.00  5260.00  5270.00  5280.00
 RHO, KG/CU M    2.1459 0 2.1387 0 2.1315 0 2.1243 0 2.1171 0 2.1099 0 2.1028 0 2.0957 0
 H, KJ/KG        126447.4 127047.0 127648.9 128253.0 128859.3 129467.9 130078.6 130691.6
 U, KJ/KG        101283.6 101798.0 102314.3 102832.5 103352.5 103874.5 104398.3 104924.1
 G, KJ/KG       -365258.6-366203.0-367148.5-368095.1-369042.9-369991.9-370942.0-371893.3
 S, KJ/(KG)(K)    94.3774  94.4923  94.6075  94.7229  94.8385  94.9543  95.0703  95.1865

 M, (1/n)           1.721    1.719    1.716    1.714    1.711    1.709    1.706    1.704
 (dLV/dLP)t      -1.07089 -1.07145 -1.07201 -1.07258 -1.07314 -1.07370 -1.07426 -1.07483
 (dLV/dLT)p        1.7606   1.7652   1.7697   1.7743   1.7788   1.7833   1.7878   1.7923
 Cp, KJ/(KG)(K)   59.8467  60.0723  60.2973  60.5215  60.7450  60.9677  61.1896  61.4107
 GAMMAs            1.2184   1.2187   1.2189   1.2192   1.2194   1.2197   1.2199   1.2202
 SON VEL,M/SEC     5537.2   5547.1   5557.0   5567.0   5577.0   5587.1   5597.1   5607.2

 TRANSPORT PROPERTIES (GASES ONLY)
   CONDUCTIVITY IN UNITS OF MILLIWATTS/(CM)(K)

 VISC,MILLIPOISE  0.80876  0.81049  0.81221  0.81393  0.81565  0.81736  0.81907  0.82077

  WITH EQUILIBRIUM REACTIONS

 Cp, KJ/(KG)(K)   59.8467  60.0723  60.2973  60.5215  60.7450  60.9677  61.1896  61.4107
 CONDUCTIVITY     93.1378  93.5974  94.0551  94.5109  94.9647  95.4164  95.8660  96.3135
 PRANDTL NUMBER    0.5197   0.5202   0.5207   0.5212   0.5217   0.5223   0.5228   0.5233

  WITH FROZEN REACTIONS

 Cp, KJ/(KG)(K)   20.4301  20.4363  20.4425  20.4486  20.4547  20.4607  20.4667  20.4726
 CONDUCTIVITY     23.3428  23.3977  23.4523  23.5067  23.5607  23.6144  23.6678  23.7210
 PRANDTL NUMBER    0.7078   0.7079   0.7080   0.7080   0.7081   0.7082   0.7083   0.7084

 MASS FRACTIONS

 *H               0.17103  0.17274  0.17447  0.17620  0.17794  0.17969  0.18146  0.18323
 *H2              0.82897  0.82726  0.82553  0.82380  0.82206  0.82031  0.81854  0.81677

  * THERMODYNAMIC PROPERTIES FITTED TO 20000.K

 NOTE. WEIGHT FRACTION OF FUEL IN TOTAL FUELS AND OF OXIDANT IN TOTAL OXIDANTS









               THERMODYNAMIC EQUILIBRIUM PROPERTIES AT ASSIGNED

                           TEMPERATURE AND PRESSURE

 CASE =                

             REACTANT                    WT FRACTION      ENERGY      TEMP
                                          (SEE NOTE)     KJ/KG-MOL      K  
 FUEL        H2                           1.0000000         0.000      0.000
 OXIDANT     H2                           1.0000000         0.000      0.000

 O/F=    1.00000  %FUEL= 50.000000  R,EQ.RATIO= 0.000000  PHI,EQ.RATIO=-1.000000

 THERMODYNAMIC PROPERTIES

 P, BAR            540.00   600.00   600.00   600.00   600.00   600.00   600.00   600.00
 T, K             5290.00  5150.00  5160.00  5170.00  5180.00  5190.00  5200.00  5210.00
 RHO, KG/CU M    2.0886 0 2.4501 0 2.4420 0 2.4340 0 2.4259 0 2.4179 0 2.4099 0 2.4019 0
 H, KJ/KG        131306.9 121039.1 121606.9 122176.8 122749.0 123323.4 123899.9 124478.7
 U, KJ/KG        105451.6  96550.5  97037.1  97525.6  98016.0  98508.2  99002.4  99498.3
 G, KJ/KG       -372845.8-357027.5-357956.4-358886.3-359817.3-360749.5-361682.7-362617.1
 S, KJ/(KG)(K)    95.3030  92.8285  92.9386  93.0490  93.1595  93.2703  93.3813  93.4925

 M, (1/n)           1.701    1.749    1.746    1.744    1.741    1.739    1.737    1.734
 (dLV/dLP)t      -1.07539 -1.06475 -1.06530 -1.06585 -1.06640 -1.06694 -1.06749 -1.06804
 (dLV/dLT)p        1.7967   1.7028   1.7074   1.7120   1.7165   1.7210   1.7256   1.7301
 Cp, KJ/(KG)(K)   61.6309  56.6632  56.8850  57.1063  57.3272  57.5475  57.7673  57.9866
 GAMMAs            1.2204   1.2174   1.2176   1.2178   1.2180   1.2182   1.2185   1.2187
 SON VEL,M/SEC     5617.3   5460.1   5469.6   5479.1   5488.7   5498.3   5507.9   5517.6

 TRANSPORT PROPERTIES (GASES ONLY)
   CONDUCTIVITY IN UNITS OF MILLIWATTS/(CM)(K)

 VISC,MILLIPOISE  0.82247  0.79606  0.79782  0.79958  0.80133  0.80308  0.80483  0.80658

  WITH EQUILIBRIUM REACTIONS

 Cp, KJ/(KG)(K)   61.6309  56.6632  56.8850  57.1063  57.3272  57.5475  57.7673  57.9866
 CONDUCTIVITY     96.7588  87.5365  87.9993  88.4607  88.9208  89.3795  89.8367  90.2925
 PRANDTL NUMBER    0.5239   0.5153   0.5157   0.5162   0.5166   0.5171   0.5175   0.5180

  WITH FROZEN REACTIONS

 Cp, KJ/(KG)(K)   20.4785  20.3895  20.3960  20.4025  20.4090  20.4154  20.4218  20.4281
 CONDUCTIVITY     23.7738  22.9588  23.0162  23.0733  23.1301  23.1867  23.2430  23.2990
 PRANDTL NUMBER    0.7085   0.7070   0.7070   0.7070   0.7071   0.7071   0.7071   0.7072

 MASS FRACTIONS

 *H               0.18501  0.15288  0.15446  0.15605  0.15764  0.15925  0.16086  0.16249
 *H2              0.81499  0.84712  0.84554  0.84395  0.84236  0.84075  0.83914  0.83751

  * THERMODYNAMIC PROPERTIES FITTED TO 20000.K

 NOTE. WEIGHT FRACTION OF FUEL IN TOTAL FUELS AND OF OXIDANT IN TOTAL OXIDANTS









               THERMODYNAMIC EQUILIBRIUM PROPERTIES AT ASSIGNED

                           TEMPERATURE AND PRESSURE

 CASE =                

             REACTANT                    WT FRACTION      ENERGY      TEMP
                                          (SEE NOTE)     KJ/KG-MOL      K  
 FUEL        H2                           1.0000000         0.000      0.000
 OXIDANT     H2                           1.0000000         0.000      0.000

 O/F=    1.00000  %FUEL= 50.000000  R,EQ.RATIO= 0.000000  PHI,EQ.RATIO=-1.000000

 THERMODYNAMIC PROPERTIES

 P, BAR            600.00   600.00   600.00   600.00   600.00   600.00   600.00   600.00
 T, K             5220.00  5230.00  5240.00  5250.00  5260.00  5270.00  5280.00  5290.00
 RHO, KG/CU M    2.3939 0 2.3860 0 2.3781 0 2.3702 0 2.3623 0 2.3544 0 2.3466 0 2.3388 0
 H, KJ/KG        125059.7 125642.8 126228.1 126815.6 127405.3 127997.1 128591.1 129187.2
 U, KJ/KG         99996.2 100495.9 100997.4 101500.8 102006.0 102513.0 103021.9 103532.5
 G, KJ/KG       -363552.6-364489.2-365426.9-366365.7-367305.7-368246.8-369189.0-370132.3
 S, KJ/(KG)(K)    93.6039  93.7155  93.8273  93.9393  94.0515  94.1639  94.2765  94.3893

 M, (1/n)           1.732    1.729    1.727    1.724    1.722    1.719    1.717    1.714
 (dLV/dLP)t      -1.06859 -1.06914 -1.06969 -1.07025 -1.07080 -1.07135 -1.07190 -1.07245
 (dLV/dLT)p        1.7346   1.7391   1.7435   1.7480   1.7524   1.7569   1.7613   1.7657
 Cp, KJ/(KG)(K)   58.2053  58.4235  58.6410  58.8579  59.0741  59.2897  59.5046  59.7187
 GAMMAs            1.2189   1.2191   1.2194   1.2196   1.2199   1.2201   1.2203   1.2206
 SON VEL,M/SEC     5527.2   5537.0   5546.7   5556.5   5566.3   5576.1   5586.0   5595.9

 TRANSPORT PROPERTIES (GASES ONLY)
   CONDUCTIVITY IN UNITS OF MILLIWATTS/(CM)(K)

 VISC,MILLIPOISE  0.80832  0.81006  0.81179  0.81353  0.81525  0.81698  0.81870  0.82042

  WITH EQUILIBRIUM REACTIONS

 Cp, KJ/(KG)(K)   58.2053  58.4235  58.6410  58.8579  59.0741  59.2897  59.5046  59.7187
 CONDUCTIVITY     90.7466  91.1992  91.6501  92.0994  92.5469  92.9926  93.4365  93.8785
 PRANDTL NUMBER    0.5185   0.5189   0.5194   0.5199   0.5204   0.5209   0.5214   0.5219

  WITH FROZEN REACTIONS

 Cp, KJ/(KG)(K)   20.4343  20.4406  20.4467  20.4529  20.4589  20.4650  20.4710  20.4769
 CONDUCTIVITY     23.3548  23.4103  23.4656  23.5206  23.5752  23.6297  23.6838  23.7377
 PRANDTL NUMBER    0.7072   0.7073   0.7074   0.7074   0.7075   0.7076   0.7076   0.7077

 MASS FRACTIONS

 *H               0.16412  0.16577  0.16742  0.16908  0.17075  0.17243  0.17412  0.17581
 *H2              0.83588  0.83423  0.83258  0.83092  0.82925  0.82757  0.82588  0.82419

  * THERMODYNAMIC PROPERTIES FITTED TO 20000.K

 NOTE. WEIGHT FRACTION OF FUEL IN TOTAL FUELS AND OF OXIDANT IN TOTAL OXIDANTS









               THERMODYNAMIC EQUILIBRIUM PROPERTIES AT ASSIGNED

                           TEMPERATURE AND PRESSURE

 CASE =                

             REACTANT                    WT FRACTION      ENERGY      TEMP
                                          (SEE NOTE)     KJ/KG-MOL      K  
 FUEL        H2                           1.0000000         0.000      0.000
 OXIDANT     H2                           1.0000000         0.000      0.000

 O/F=    1.00000  %FUEL= 50.000000  R,EQ.RATIO= 0.000000  PHI,EQ.RATIO=-1.000000

 THERMODYNAMIC PROPERTIES

 P, BAR            670.00   670.00   670.00   670.00   670.00   670.00   670.00   670.00
 T, K             5150.00  5160.00  5170.00  5180.00  5190.00  5200.00  5210.00  5220.00
 RHO, KG/CU M    2.7552 0 2.7462 0 2.7373 0 2.7284 0 2.7196 0 2.7107 0 2.7019 0 2.6931 0
 H, KJ/KG        119187.9 119737.4 120289.0 120842.7 121398.6 121956.5 122516.6 123078.9
 U, KJ/KG         94869.8  95340.2  95812.4  96286.4  96762.1  97239.7  97719.2  98200.4
 G, KJ/KG       -354334.7-355254.7-356175.8-357097.9-358021.1-358945.4-359870.7-360797.2
 S, KJ/(KG)(K)    91.9461  92.0527  92.1595  92.2665  92.3737  92.4811  92.5888  92.6966

 M, (1/n)           1.761    1.759    1.756    1.754    1.752    1.749    1.747    1.745
 (dLV/dLP)t      -1.06194 -1.06247 -1.06300 -1.06353 -1.06407 -1.06460 -1.06513 -1.06567
 (dLV/dLT)p        1.6722   1.6767   1.6811   1.6856   1.6900   1.6944   1.6989   1.7033
 Cp, KJ/(KG)(K)   54.8400  55.0536  55.2669  55.4798  55.6923  55.9044  56.1161  56.3273
 GAMMAs            1.2178   1.2180   1.2182   1.2184   1.2186   1.2188   1.2190   1.2192
 SON VEL,M/SEC     5441.9   5451.2   5460.5   5469.8   5479.2   5488.6   5498.0   5507.5

 TRANSPORT PROPERTIES (GASES ONLY)
   CONDUCTIVITY IN UNITS OF MILLIWATTS/(CM)(K)

 VISC,MILLIPOISE  0.79364  0.79541  0.79717  0.79893  0.80069  0.80245  0.80421  0.80596

  WITH EQUILIBRIUM REACTIONS

 Cp, KJ/(KG)(K)   54.8399  55.0536  55.2669  55.4798  55.6923  55.9044  56.1161  56.3273
 CONDUCTIVITY     84.6701  85.1243  85.5775  86.0296  86.4805  86.9303  87.3788  87.8260
 PRANDTL NUMBER    0.5140   0.5144   0.5148   0.5152   0.5156   0.5161   0.5165   0.5169

  WITH FROZEN REACTIONS

 Cp, KJ/(KG)(K)   20.3873  20.3939  20.4004  20.4069  20.4133  20.4197  20.4261  20.4324
 CONDUCTIVITY     22.9042  22.9623  23.0200  23.0776  23.1349  23.1920  23.2488  23.3054
 PRANDTL NUMBER    0.7064   0.7064   0.7065   0.7065   0.7065   0.7065   0.7066   0.7066

 MASS FRACTIONS

 *H               0.14485  0.14635  0.14786  0.14938  0.15090  0.15244  0.15398  0.15553
 *H2              0.85515  0.85365  0.85214  0.85062  0.84910  0.84756  0.84602  0.84447

  * THERMODYNAMIC PROPERTIES FITTED TO 20000.K

 NOTE. WEIGHT FRACTION OF FUEL IN TOTAL FUELS AND OF OXIDANT IN TOTAL OXIDANTS









               THERMODYNAMIC EQUILIBRIUM PROPERTIES AT ASSIGNED

                           TEMPERATURE AND PRESSURE

 CASE =                

             REACTANT                    WT FRACTION      ENERGY      TEMP
                                          (SEE NOTE)     KJ/KG-MOL      K  
 FUEL        H2                           1.0000000         0.000      0.000
 OXIDANT     H2                           1.0000000         0.000      0.000

 O/F=    1.00000  %FUEL= 50.000000  R,EQ.RATIO= 0.000000  PHI,EQ.RATIO=-1.000000

 THERMODYNAMIC PROPERTIES

 P, BAR            670.00   670.00   670.00   670.00   670.00   670.00   670.00   740.00
 T, K             5230.00  5240.00  5250.00  5260.00  5270.00  5280.00  5290.00  5150.00
 RHO, KG/CU M    2.6843 0 2.6756 0 2.6668 0 2.6581 0 2.6494 0 2.6408 0 2.6321 0 3.0614 0
 H, KJ/KG        123643.2 124209.6 124778.2 125348.8 125921.5 126496.3 127073.2 117600.7
 U, KJ/KG         98683.3  99168.1  99654.7 100143.0 100633.1 101124.9 101618.6  93428.9
 G, KJ/KG       -361724.7-362653.3-363582.9-364513.7-365445.5-366378.5-367312.5-351925.5
 S, KJ/(KG)(K)    92.8046  92.9128  93.0212  93.1297  93.2385  93.3475  93.4566  91.1701

 M, (1/n)           1.742    1.740    1.737    1.735    1.733    1.730    1.728    1.771
 (dLV/dLP)t      -1.06621 -1.06674 -1.06728 -1.06782 -1.06836 -1.06890 -1.06944 -1.05947
 (dLV/dLT)p        1.7077   1.7121   1.7164   1.7208   1.7251   1.7295   1.7338   1.6454
 Cp, KJ/(KG)(K)   56.5380  56.7482  56.9579  57.1671  57.3757  57.5838  57.7912  53.2659
 GAMMAs            1.2194   1.2197   1.2199   1.2201   1.2203   1.2206   1.2208   1.2182
 SON VEL,M/SEC     5517.0   5526.5   5536.0   5545.6   5555.2   5564.8   5574.5   5426.4

 TRANSPORT PROPERTIES (GASES ONLY)
   CONDUCTIVITY IN UNITS OF MILLIWATTS/(CM)(K)

 VISC,MILLIPOISE  0.80771  0.80946  0.81120  0.81294  0.81468  0.81642  0.81815  0.79141

  WITH EQUILIBRIUM REACTIONS

 Cp, KJ/(KG)(K)   56.5380  56.7482  56.9579  57.1671  57.3757  57.5838  57.7912  53.2659
 CONDUCTIVITY     88.2719  88.7164  89.1596  89.6012  90.0414  90.4801  90.9171  82.1562
 PRANDTL NUMBER    0.5173   0.5178   0.5182   0.5187   0.5191   0.5196   0.5201   0.5131

  WITH FROZEN REACTIONS

 Cp, KJ/(KG)(K)   20.4387  20.4449  20.4511  20.4572  20.4633  20.4693  20.4753  20.3854
 CONDUCTIVITY     23.3618  23.4179  23.4737  23.5293  23.5846  23.6397  23.6945  22.8523
 PRANDTL NUMBER    0.7066   0.7067   0.7067   0.7068   0.7069   0.7069   0.7070   0.7060

 MASS FRACTIONS

 *H               0.15709  0.15866  0.16024  0.16183  0.16343  0.16503  0.16665  0.13797
 *H2              0.84291  0.84134  0.83976  0.83817  0.83657  0.83497  0.83335  0.86203

  * THERMODYNAMIC PROPERTIES FITTED TO 20000.K

 NOTE. WEIGHT FRACTION OF FUEL IN TOTAL FUELS AND OF OXIDANT IN TOTAL OXIDANTS









               THERMODYNAMIC EQUILIBRIUM PROPERTIES AT ASSIGNED

                           TEMPERATURE AND PRESSURE

 CASE =                

             REACTANT                    WT FRACTION      ENERGY      TEMP
                                          (SEE NOTE)     KJ/KG-MOL      K  
 FUEL        H2                           1.0000000         0.000      0.000
 OXIDANT     H2                           1.0000000         0.000      0.000

 O/F=    1.00000  %FUEL= 50.000000  R,EQ.RATIO= 0.000000  PHI,EQ.RATIO=-1.000000

 THERMODYNAMIC PROPERTIES

 P, BAR            740.00   740.00   740.00   740.00   740.00   740.00   740.00   740.00
 T, K             5160.00  5170.00  5180.00  5190.00  5200.00  5210.00  5220.00  5230.00
 RHO, KG/CU M    3.0516 0 3.0419 0 3.0322 0 3.0225 0 3.0128 0 3.0032 0 2.9935 0 2.9839 0
 H, KJ/KG        118134.4 118670.2 119208.0 119747.9 120289.8 120833.7 121379.8 121927.8
 U, KJ/KG         93885.2  94343.3  94803.1  95264.7  95728.0  96193.1  96659.9  97128.4
 G, KJ/KG       -352837.7-353751.0-354665.3-355580.6-356497.0-357414.4-358332.9-359252.4
 S, KJ/(KG)(K)    91.2737  91.3774  91.4813  91.5854  91.6898  91.7943  91.8990  92.0039

 M, (1/n)           1.769    1.767    1.765    1.763    1.760    1.758    1.756    1.753
 (dLV/dLP)t      -1.05998 -1.06050 -1.06102 -1.06154 -1.06206 -1.06258 -1.06311 -1.06363
 (dLV/dLT)p        1.6498   1.6541   1.6585   1.6628   1.6672   1.6715   1.6758   1.6801
 Cp, KJ/(KG)(K)   53.4722  53.6782  53.8839  54.0893  54.2943  54.4990  54.7033  54.9072
 GAMMAs            1.2184   1.2185   1.2187   1.2189   1.2191   1.2193   1.2195   1.2197
 SON VEL,M/SEC     5435.5   5444.6   5453.7   5462.9   5472.1   5481.3   5490.6   5499.9

 TRANSPORT PROPERTIES (GASES ONLY)
   CONDUCTIVITY IN UNITS OF MILLIWATTS/(CM)(K)

 VISC,MILLIPOISE  0.79318  0.79495  0.79672  0.79848  0.80025  0.80201  0.80377  0.80553

  WITH EQUILIBRIUM REACTIONS

 Cp, KJ/(KG)(K)   53.4722  53.6782  53.8839  54.0893  54.2943  54.4990  54.7033  54.9072
 CONDUCTIVITY     82.6020  83.0470  83.4910  83.9341  84.3762  84.8173  85.2573  85.6963
 PRANDTL NUMBER    0.5135   0.5138   0.5142   0.5146   0.5149   0.5153   0.5157   0.5161

  WITH FROZEN REACTIONS

 Cp, KJ/(KG)(K)   20.3920  20.3986  20.4051  20.4116  20.4180  20.4244  20.4307  20.4370
 CONDUCTIVITY     22.9108  22.9692  23.0273  23.0852  23.1429  23.2003  23.2575  23.3145
 PRANDTL NUMBER    0.7060   0.7060   0.7060   0.7060   0.7060   0.7060   0.7061   0.7061

 MASS FRACTIONS

 *H               0.13940  0.14084  0.14229  0.14374  0.14521  0.14668  0.14816  0.14965
 *H2              0.86060  0.85916  0.85771  0.85626  0.85479  0.85332  0.85184  0.85035

  * THERMODYNAMIC PROPERTIES FITTED TO 20000.K

 NOTE. WEIGHT FRACTION OF FUEL IN TOTAL FUELS AND OF OXIDANT IN TOTAL OXIDANTS









               THERMODYNAMIC EQUILIBRIUM PROPERTIES AT ASSIGNED

                           TEMPERATURE AND PRESSURE

 CASE =                

             REACTANT                    WT FRACTION      ENERGY      TEMP
                                          (SEE NOTE)     KJ/KG-MOL      K  
 FUEL        H2                           1.0000000         0.000      0.000
 OXIDANT     H2                           1.0000000         0.000      0.000

 O/F=    1.00000  %FUEL= 50.000000  R,EQ.RATIO= 0.000000  PHI,EQ.RATIO=-1.000000

 THERMODYNAMIC PROPERTIES

 P, BAR            740.00   740.00   740.00   740.00   740.00   740.00   825.00   825.00
 T, K             5240.00  5250.00  5260.00  5270.00  5280.00  5290.00  5150.00  5160.00
 RHO, KG/CU M    2.9744 0 2.9648 0 2.9553 0 2.9458 0 2.9363 0 2.9269 0 3.4347 0 3.4239 0
 H, KJ/KG        122477.9 123030.0 123584.2 124140.3 124698.5 125258.7 115947.2 116464.3
 U, KJ/KG         97598.7  98070.7  98544.4  99019.8  99497.0  99975.8  91927.7  92369.3
 G, KJ/KG       -360173.0-361094.6-362017.2-362941.0-363865.7-364791.6-349305.6-350209.5
 S, KJ/(KG)(K)    92.1089  92.2142  92.3197  92.4253  92.5311  92.6371  90.3403  90.4407

 M, (1/n)           1.751    1.749    1.747    1.744    1.742    1.740    1.783    1.781
 (dLV/dLP)t      -1.06415 -1.06468 -1.06520 -1.06573 -1.06626 -1.06678 -1.05684 -1.05734
 (dLV/dLT)p        1.6844   1.6887   1.6930   1.6973   1.7015   1.7058   1.6170   1.6212
 Cp, KJ/(KG)(K)   55.1107  55.3138  55.5164  55.7185  55.9202  56.1214  51.6159  51.8141
 GAMMAs            1.2199   1.2201   1.2204   1.2206   1.2208   1.2210   1.2186   1.2188
 SON VEL,M/SEC     5509.2   5518.5   5527.9   5537.3   5546.7   5556.1   5410.3   5419.1

 TRANSPORT PROPERTIES (GASES ONLY)
   CONDUCTIVITY IN UNITS OF MILLIWATTS/(CM)(K)

 VISC,MILLIPOISE  0.80728  0.80904  0.81079  0.81254  0.81428  0.81603  0.78894  0.79071

  WITH EQUILIBRIUM REACTIONS

 Cp, KJ/(KG)(K)   55.1107  55.3138  55.5164  55.7185  55.9202  56.1214  51.6159  51.8141
 CONDUCTIVITY     86.1341  86.5707  87.0061  87.4403  87.8731  88.3046  79.4817  79.9176
 PRANDTL NUMBER    0.5165   0.5169   0.5173   0.5178   0.5182   0.5186   0.5123   0.5127

  WITH FROZEN REACTIONS

 Cp, KJ/(KG)(K)   20.4433  20.4495  20.4557  20.4618  20.4679  20.4739  20.3834  20.3900
 CONDUCTIVITY     23.3713  23.4278  23.4840  23.5401  23.5959  23.6514  22.7929  22.8519
 PRANDTL NUMBER    0.7061   0.7062   0.7062   0.7063   0.7063   0.7064   0.7055   0.7055

 MASS FRACTIONS

 *H               0.15115  0.15266  0.15418  0.15570  0.15723  0.15878  0.13080  0.13215
 *H2              0.84885  0.84734  0.84582  0.84430  0.84277  0.84122  0.86920  0.86785

  * THERMODYNAMIC PROPERTIES FITTED TO 20000.K

 NOTE. WEIGHT FRACTION OF FUEL IN TOTAL FUELS AND OF OXIDANT IN TOTAL OXIDANTS









               THERMODYNAMIC EQUILIBRIUM PROPERTIES AT ASSIGNED

                           TEMPERATURE AND PRESSURE

 CASE =                

             REACTANT                    WT FRACTION      ENERGY      TEMP
                                          (SEE NOTE)     KJ/KG-MOL      K  
 FUEL        H2                           1.0000000         0.000      0.000
 OXIDANT     H2                           1.0000000         0.000      0.000

 O/F=    1.00000  %FUEL= 50.000000  R,EQ.RATIO= 0.000000  PHI,EQ.RATIO=-1.000000

 THERMODYNAMIC PROPERTIES

 P, BAR            825.00   825.00   825.00   825.00   825.00   825.00   825.00   825.00
 T, K             5170.00  5180.00  5190.00  5200.00  5210.00  5220.00  5230.00  5240.00
 RHO, KG/CU M    3.4132 0 3.4025 0 3.3918 0 3.3811 0 3.3705 0 3.3599 0 3.3493 0 3.3387 0
 H, KJ/KG        116983.5 117504.6 118027.7 118552.7 119079.8 119608.8 120139.7 120672.7
 U, KJ/KG         92812.6  93257.6  93704.2  94152.6  94602.6  95054.3  95507.7  95962.7
 G, KJ/KG       -351114.4-352020.3-352927.2-353835.2-354744.1-355654.1-356565.0-357477.0
 S, KJ/(KG)(K)    90.5412  90.6419  90.7428  90.8438  90.9451  91.0465  91.1481  91.2499

 M, (1/n)           1.778    1.776    1.774    1.772    1.770    1.768    1.765    1.763
 (dLV/dLP)t      -1.05785 -1.05835 -1.05885 -1.05936 -1.05987 -1.06037 -1.06088 -1.06139
 (dLV/dLT)p        1.6254   1.6297   1.6339   1.6381   1.6423   1.6465   1.6507   1.6549
 Cp, KJ/(KG)(K)   52.0122  52.2100  52.4075  52.6048  52.8018  52.9984  53.1948  53.3909
 GAMMAs            1.2190   1.2192   1.2193   1.2195   1.2197   1.2199   1.2201   1.2203
 SON VEL,M/SEC     5428.1   5437.0   5445.9   5454.9   5464.0   5473.0   5482.1   5491.2

 TRANSPORT PROPERTIES (GASES ONLY)
   CONDUCTIVITY IN UNITS OF MILLIWATTS/(CM)(K)

 VISC,MILLIPOISE  0.79248  0.79425  0.79602  0.79779  0.79955  0.80132  0.80308  0.80484

  WITH EQUILIBRIUM REACTIONS

 Cp, KJ/(KG)(K)   52.0122  52.2100  52.4075  52.6048  52.8018  52.9984  53.1948  53.3909
 CONDUCTIVITY     80.3528  80.7872  81.2210  81.6540  82.0862  82.5175  82.9480  83.3775
 PRANDTL NUMBER    0.5130   0.5133   0.5136   0.5140   0.5143   0.5147   0.5150   0.5154

  WITH FROZEN REACTIONS

 Cp, KJ/(KG)(K)   20.3967  20.4032  20.4097  20.4162  20.4226  20.4290  20.4354  20.4417
 CONDUCTIVITY     22.9108  22.9694  23.0278  23.0860  23.1440  23.2018  23.2594  23.3168
 PRANDTL NUMBER    0.7055   0.7055   0.7055   0.7055   0.7055   0.7056   0.7056   0.7056

 MASS FRACTIONS

 *H               0.13352  0.13490  0.13628  0.13767  0.13907  0.14048  0.14190  0.14332
 *H2              0.86648  0.86510  0.86372  0.86233  0.86093  0.85952  0.85810  0.85668

  * THERMODYNAMIC PROPERTIES FITTED TO 20000.K

 NOTE. WEIGHT FRACTION OF FUEL IN TOTAL FUELS AND OF OXIDANT IN TOTAL OXIDANTS









               THERMODYNAMIC EQUILIBRIUM PROPERTIES AT ASSIGNED

                           TEMPERATURE AND PRESSURE

 CASE =                

             REACTANT                    WT FRACTION      ENERGY      TEMP
                                          (SEE NOTE)     KJ/KG-MOL      K  
 FUEL        H2                           1.0000000         0.000      0.000
 OXIDANT     H2                           1.0000000         0.000      0.000

 O/F=    1.00000  %FUEL= 50.000000  R,EQ.RATIO= 0.000000  PHI,EQ.RATIO=-1.000000

 THERMODYNAMIC PROPERTIES

 P, BAR            825.00   825.00   825.00   825.00   825.00   910.00   910.00   910.00
 T, K             5250.00  5260.00  5270.00  5280.00  5290.00  5150.00  5160.00  5170.00
 RHO, KG/CU M    3.3282 0 3.3177 0 3.3072 0 3.2968 0 3.2863 0 3.8093 0 3.7976 0 3.7858 0
 H, KJ/KG        121207.5 121744.4 122283.2 122823.9 123366.6 114527.3 115030.2 115535.0
 U, KJ/KG         96419.4  96877.7  97337.8  97799.4  98262.7  90638.7  91067.5  91498.1
 G, KJ/KG       -358390.0-359304.1-360219.1-361135.2-362052.3-346956.7-347853.2-348750.8
 S, KJ/(KG)(K)    91.3519  91.4541  91.5564  91.6589  91.7616  89.6085  89.7061  89.8038

 M, (1/n)           1.761    1.759    1.757    1.754    1.752    1.792    1.790    1.788
 (dLV/dLP)t      -1.06190 -1.06241 -1.06292 -1.06344 -1.06395 -1.05455 -1.05504 -1.05552
 (dLV/dLT)p        1.6591   1.6633   1.6675   1.6717   1.6758   1.5921   1.5962   1.6003
 Cp, KJ/(KG)(K)   53.5866  53.7819  53.9769  54.1715  54.3656  50.1912  50.3822  50.5731
 GAMMAs            1.2205   1.2207   1.2209   1.2211   1.2213   1.2191   1.2192   1.2194
 SON VEL,M/SEC     5500.3   5509.4   5518.6   5527.8   5537.1   5396.5   5405.2   5413.9

 TRANSPORT PROPERTIES (GASES ONLY)
   CONDUCTIVITY IN UNITS OF MILLIWATTS/(CM)(K)

 VISC,MILLIPOISE  0.80660  0.80836  0.81012  0.81187  0.81362  0.78669  0.78846  0.79023

  WITH EQUILIBRIUM REACTIONS

 Cp, KJ/(KG)(K)   53.5866  53.7819  53.9769  54.1715  54.3656  50.1912  50.3822  50.5731
 CONDUCTIVITY     83.8061  84.2337  84.6603  85.0858  85.5102  77.1397  77.5661  77.9920
 PRANDTL NUMBER    0.5158   0.5161   0.5165   0.5169   0.5173   0.5119   0.5121   0.5124

  WITH FROZEN REACTIONS

 Cp, KJ/(KG)(K)   20.4479  20.4541  20.4603  20.4664  20.4724  20.3817  20.3884  20.3950
 CONDUCTIVITY     23.3740  23.4309  23.4876  23.5441  23.6004  22.7375  22.7968  22.8560
 PRANDTL NUMBER    0.7056   0.7057   0.7057   0.7057   0.7058   0.7052   0.7052   0.7051

 MASS FRACTIONS

 *H               0.14476  0.14620  0.14765  0.14910  0.15057  0.12464  0.12593  0.12724
 *H2              0.85524  0.85380  0.85235  0.85090  0.84943  0.87536  0.87407  0.87276

  * THERMODYNAMIC PROPERTIES FITTED TO 20000.K

 NOTE. WEIGHT FRACTION OF FUEL IN TOTAL FUELS AND OF OXIDANT IN TOTAL OXIDANTS









               THERMODYNAMIC EQUILIBRIUM PROPERTIES AT ASSIGNED

                           TEMPERATURE AND PRESSURE

 CASE =                

             REACTANT                    WT FRACTION      ENERGY      TEMP
                                          (SEE NOTE)     KJ/KG-MOL      K  
 FUEL        H2                           1.0000000         0.000      0.000
 OXIDANT     H2                           1.0000000         0.000      0.000

 O/F=    1.00000  %FUEL= 50.000000  R,EQ.RATIO= 0.000000  PHI,EQ.RATIO=-1.000000

 THERMODYNAMIC PROPERTIES

 P, BAR            910.00   910.00   910.00   910.00   910.00   910.00   910.00   910.00
 T, K             5180.00  5190.00  5200.00  5210.00  5220.00  5230.00  5240.00  5250.00
 RHO, KG/CU M    3.7741 0 3.7625 0 3.7508 0 3.7392 0 3.7276 0 3.7161 0 3.7045 0 3.6930 0
 H, KJ/KG        116041.6 116550.2 117060.7 117573.1 118087.4 118603.6 119121.7 119641.7
 U, KJ/KG         91930.2  92364.0  92799.4  93236.4  93675.0  94115.3  94557.1  95000.6
 G, KJ/KG       -349649.3-350548.8-351449.3-352350.8-353253.3-354156.7-355061.1-355966.6
 S, KJ/(KG)(K)    89.9017  89.9998  90.0981  90.1965  90.2951  90.3939  90.4929  90.5920

 M, (1/n)           1.786    1.784    1.782    1.780    1.778    1.776    1.774    1.771
 (dLV/dLP)t      -1.05601 -1.05650 -1.05699 -1.05749 -1.05798 -1.05847 -1.05897 -1.05947
 (dLV/dLT)p        1.6045   1.6086   1.6127   1.6168   1.6209   1.6250   1.6291   1.6332
 Cp, KJ/(KG)(K)   50.7638  50.9543  51.1446  51.3347  51.5245  51.7141  51.9034  52.0924
 GAMMAs            1.2196   1.2197   1.2199   1.2201   1.2202   1.2204   1.2206   1.2208
 SON VEL,M/SEC     5422.7   5431.4   5440.3   5449.1   5457.9   5466.8   5475.7   5484.7

 TRANSPORT PROPERTIES (GASES ONLY)
   CONDUCTIVITY IN UNITS OF MILLIWATTS/(CM)(K)

 VISC,MILLIPOISE  0.79200  0.79377  0.79554  0.79731  0.79907  0.80084  0.80260  0.80436

  WITH EQUILIBRIUM REACTIONS

 Cp, KJ/(KG)(K)   50.7638  50.9543  51.1446  51.3347  51.5245  51.7141  51.9034  52.0924
 CONDUCTIVITY     78.4174  78.8422  79.2663  79.6899  80.1128  80.5349  80.9564  81.3770
 PRANDTL NUMBER    0.5127   0.5130   0.5133   0.5136   0.5139   0.5142   0.5146   0.5149

  WITH FROZEN REACTIONS

 Cp, KJ/(KG)(K)   20.4016  20.4081  20.4147  20.4211  20.4275  20.4339  20.4402  20.4465
 CONDUCTIVITY     22.9150  22.9738  23.0325  23.0909  23.1491  23.2072  23.2650  23.3227
 PRANDTL NUMBER    0.7051   0.7051   0.7051   0.7051   0.7051   0.7051   0.7052   0.7052

 MASS FRACTIONS

 *H               0.12855  0.12987  0.13120  0.13254  0.13388  0.13524  0.13660  0.13796
 *H2              0.87145  0.87013  0.86880  0.86746  0.86612  0.86476  0.86340  0.86204

  * THERMODYNAMIC PROPERTIES FITTED TO 20000.K

 NOTE. WEIGHT FRACTION OF FUEL IN TOTAL FUELS AND OF OXIDANT IN TOTAL OXIDANTS









               THERMODYNAMIC EQUILIBRIUM PROPERTIES AT ASSIGNED

                           TEMPERATURE AND PRESSURE

 CASE =                

             REACTANT                    WT FRACTION      ENERGY      TEMP
                                          (SEE NOTE)     KJ/KG-MOL      K  
 FUEL        H2                           1.0000000         0.000      0.000
 OXIDANT     H2                           1.0000000         0.000      0.000

 O/F=    1.00000  %FUEL= 50.000000  R,EQ.RATIO= 0.000000  PHI,EQ.RATIO=-1.000000

 THERMODYNAMIC PROPERTIES

 P, BAR            910.00   910.00   910.00   910.00
 T, K             5260.00  5270.00  5280.00  5290.00
 RHO, KG/CU M    3.6815 0 3.6701 0 3.6587 0 3.6473 0
 H, KJ/KG        120163.6 120687.3 121212.9 121740.5
 U, KJ/KG         95445.7  95892.3  96340.6  96790.5
 G, KJ/KG       -356873.0-357780.4-358688.8-359598.2
 S, KJ/(KG)(K)    90.6914  90.7908  90.8905  90.9903

 M, (1/n)           1.769    1.767    1.765    1.763
 (dLV/dLP)t      -1.05996 -1.06046 -1.06096 -1.06146
 (dLV/dLT)p        1.6373   1.6414   1.6454   1.6495
 Cp, KJ/(KG)(K)   52.2812  52.4696  52.6577  52.8454
 GAMMAs            1.2210   1.2212   1.2214   1.2216
 SON VEL,M/SEC     5493.6   5502.6   5511.7   5520.7

 TRANSPORT PROPERTIES (GASES ONLY)
   CONDUCTIVITY IN UNITS OF MILLIWATTS/(CM)(K)

 VISC,MILLIPOISE  0.80612  0.80788  0.80964  0.81140

  WITH EQUILIBRIUM REACTIONS

 Cp, KJ/(KG)(K)   52.2812  52.4696  52.6577  52.8454
 CONDUCTIVITY     81.7968  82.2158  82.6340  83.0512
 PRANDTL NUMBER    0.5152   0.5156   0.5159   0.5163

  WITH FROZEN REACTIONS

 Cp, KJ/(KG)(K)   20.4528  20.4589  20.4651  20.4712
 CONDUCTIVITY     23.3801  23.4373  23.4944  23.5512
 PRANDTL NUMBER    0.7052   0.7052   0.7053   0.7053

 MASS FRACTIONS

 *H               0.13934  0.14073  0.14212  0.14352
 *H2              0.86066  0.85927  0.85788  0.85648

  * THERMODYNAMIC PROPERTIES FITTED TO 20000.K

 NOTE. WEIGHT FRACTION OF FUEL IN TOTAL FUELS AND OF OXIDANT IN TOTAL OXIDANTS



  
