
 *******************************************************************************

         NASA-GLENN CHEMICAL EQUILIBRIUM PROGRAM CEA2, MAY 21, 2004
                   BY  BONNIE MCBRIDE AND SANFORD GORDON
      REFS: NASA RP-1311, PART I, 1994 AND NASA RP-1311, PART II, 1996

 *******************************************************************************



  prob tp
  p,bar= 0.001,0.00125,0.0015,0.002,0.0025,0.003,0.004,0.005,0.00625,0.008,0.01,0
 .0125,0.015,0.02,0.025,0.03,0.04,0.05,0.0625,0.08
  t,k= 500,510,520,530,540,550,560,570,580,590,600,610,620,630,640,650,660,670,68
 0,690
  
  
  reac
  fuel H2                wt%=100.0000
  oxid H2                wt%=100.0000
  
  output short
  
  output massf
  
  output siunits
  
  output transport
  
 end





               THERMODYNAMIC EQUILIBRIUM PROPERTIES AT ASSIGNED

                           TEMPERATURE AND PRESSURE

 CASE =                

             REACTANT                    WT FRACTION      ENERGY      TEMP
                                          (SEE NOTE)     KJ/KG-MOL      K  
 FUEL        H2                           1.0000000         0.000      0.000
 OXIDANT     H2                           1.0000000         0.000      0.000

 O/F=    1.00000  %FUEL= 50.000000  R,EQ.RATIO= 0.000000  PHI,EQ.RATIO=-1.000000

 THERMODYNAMIC PROPERTIES

 P, BAR           0.00100  0.00100  0.00100  0.00100  0.00100  0.00100  0.00100  0.00100
 T, K              500.00   510.00   520.00   530.00   540.00   550.00   560.00   570.00
 RHO, KG/CU M    4.8491-5 4.7540-5 4.6626-5 4.5746-5 4.4899-5 4.4082-5 4.3295-5 4.2536-5
 H, KJ/KG         2918.10  3063.23  3208.38  3353.55  3498.75  3643.98  3789.24  3934.53
 U, KJ/KG          855.85   959.73  1063.63  1167.56  1271.52  1375.50  1479.52  1583.56
 G, KJ/KG        -47475.4 -48484.8 -49496.9 -50511.9 -51529.6 -52549.9 -53573.0 -54598.6
 S, KJ/(KG)(K)   100.7871 101.0745 101.3563 101.6329 101.9043 102.1708 102.4325 102.6897

 M, (1/n)           2.016    2.016    2.016    2.016    2.016    2.016    2.016    2.016
 (dLV/dLP)t      -1.00000 -1.00000 -1.00000 -1.00000 -1.00000 -1.00000 -1.00000 -1.00000
 (dLV/dLT)p        1.0000   1.0000   1.0000   1.0000   1.0000   1.0000   1.0000   1.0000
 Cp, KJ/(KG)(K)   14.5115  14.5138  14.5161  14.5186  14.5214  14.5243  14.5276  14.5311
 GAMMAs            1.3971   1.3970   1.3969   1.3968   1.3967   1.3966   1.3965   1.3963
 SON VEL,M/SEC     1697.4   1714.2   1730.9   1747.4   1763.7   1779.9   1796.0   1811.8

 TRANSPORT PROPERTIES (GASES ONLY)
   CONDUCTIVITY IN UNITS OF MILLIWATTS/(CM)(K)

 VISC,MILLIPOISE  0.12683  0.12856  0.13028  0.13200  0.13370  0.13540  0.13709  0.13877

  WITH EQUILIBRIUM REACTIONS

 Cp, KJ/(KG)(K)   14.5115  14.5138  14.5161  14.5186  14.5214  14.5243  14.5276  14.5311
 CONDUCTIVITY      2.6732   2.7098   2.7462   2.7826   2.8188   2.8549   2.8909   2.9268
 PRANDTL NUMBER    0.6885   0.6886   0.6886   0.6887   0.6888   0.6889   0.6889   0.6890

  WITH FROZEN REACTIONS

 Cp, KJ/(KG)(K)   14.5115  14.5138  14.5161  14.5186  14.5214  14.5243  14.5276  14.5311
 CONDUCTIVITY      2.6732   2.7098   2.7462   2.7826   2.8188   2.8549   2.8909   2.9268
 PRANDTL NUMBER    0.6885   0.6886   0.6886   0.6887   0.6888   0.6889   0.6889   0.6890

 MASS FRACTIONS

 *H2              1.00000  1.00000  1.00000  1.00000  1.00000  1.00000  1.00000  1.00000

  * THERMODYNAMIC PROPERTIES FITTED TO 20000.K

 NOTE. WEIGHT FRACTION OF FUEL IN TOTAL FUELS AND OF OXIDANT IN TOTAL OXIDANTS









               THERMODYNAMIC EQUILIBRIUM PROPERTIES AT ASSIGNED

                           TEMPERATURE AND PRESSURE

 CASE =                

             REACTANT                    WT FRACTION      ENERGY      TEMP
                                          (SEE NOTE)     KJ/KG-MOL      K  
 FUEL        H2                           1.0000000         0.000      0.000
 OXIDANT     H2                           1.0000000         0.000      0.000

 O/F=    1.00000  %FUEL= 50.000000  R,EQ.RATIO= 0.000000  PHI,EQ.RATIO=-1.000000

 THERMODYNAMIC PROPERTIES

 P, BAR           0.00100  0.00100  0.00100  0.00100  0.00100  0.00100  0.00100  0.00100
 T, K              580.00   590.00   600.00   610.00   620.00   630.00   640.00   650.00
 RHO, KG/CU M    4.1802-5 4.1094-5 4.0409-5 3.9746-5 3.9105-5 3.8485-5 3.7883-5 3.7300-5
 H, KJ/KG         4079.86  4225.23  4370.65  4516.11  4661.62  4807.18  4952.80  5098.47
 U, KJ/KG         1687.65  1791.77  1895.94  2000.16  2104.42  2208.74  2313.11  2417.54
 G, KJ/KG        -55626.7 -56657.4 -57690.5 -58726.1 -59764.0 -60804.3 -61846.9 -62891.8
 S, KJ/(KG)(K)   102.9424 103.1909 103.4353 103.6757 103.9124 104.1453 104.3746 104.6004

 M, (1/n)           2.016    2.016    2.016    2.016    2.016    2.016    2.016    2.016
 (dLV/dLP)t      -1.00000 -1.00000 -1.00000 -1.00000 -1.00000 -1.00000 -1.00000 -1.00000
 (dLV/dLT)p        1.0000   1.0000   1.0000   1.0000   1.0000   1.0000   1.0000   1.0000
 Cp, KJ/(KG)(K)   14.5350  14.5391  14.5436  14.5484  14.5535  14.5590  14.5648  14.5709
 GAMMAs            1.3962   1.3960   1.3959   1.3957   1.3955   1.3953   1.3951   1.3948
 SON VEL,M/SEC     1827.6   1843.1   1858.6   1873.9   1889.1   1904.1   1919.0   1933.8

 TRANSPORT PROPERTIES (GASES ONLY)
   CONDUCTIVITY IN UNITS OF MILLIWATTS/(CM)(K)

 VISC,MILLIPOISE  0.14044  0.14211  0.14377  0.14542  0.14707  0.14871  0.15034  0.15196

  WITH EQUILIBRIUM REACTIONS

 Cp, KJ/(KG)(K)   14.5350  14.5391  14.5436  14.5484  14.5535  14.5590  14.5648  14.5709
 CONDUCTIVITY      2.9627   2.9984   3.0342   3.0698   3.1054   3.1410   3.1764   3.2119
 PRANDTL NUMBER    0.6890   0.6891   0.6891   0.6892   0.6892   0.6893   0.6893   0.6894

  WITH FROZEN REACTIONS

 Cp, KJ/(KG)(K)   14.5350  14.5391  14.5436  14.5484  14.5535  14.5590  14.5648  14.5709
 CONDUCTIVITY      2.9627   2.9984   3.0342   3.0698   3.1054   3.1410   3.1764   3.2119
 PRANDTL NUMBER    0.6890   0.6891   0.6891   0.6892   0.6892   0.6893   0.6893   0.6894

 MASS FRACTIONS

 *H2              1.00000  1.00000  1.00000  1.00000  1.00000  1.00000  1.00000  1.00000

  * THERMODYNAMIC PROPERTIES FITTED TO 20000.K

 NOTE. WEIGHT FRACTION OF FUEL IN TOTAL FUELS AND OF OXIDANT IN TOTAL OXIDANTS









               THERMODYNAMIC EQUILIBRIUM PROPERTIES AT ASSIGNED

                           TEMPERATURE AND PRESSURE

 CASE =                

             REACTANT                    WT FRACTION      ENERGY      TEMP
                                          (SEE NOTE)     KJ/KG-MOL      K  
 FUEL        H2                           1.0000000         0.000      0.000
 OXIDANT     H2                           1.0000000         0.000      0.000

 O/F=    1.00000  %FUEL= 50.000000  R,EQ.RATIO= 0.000000  PHI,EQ.RATIO=-1.000000

 THERMODYNAMIC PROPERTIES

 P, BAR           0.00100  0.00100  0.00100  0.00100  0.00125  0.00125  0.00125  0.00125
 T, K              660.00   670.00   680.00   690.00   500.00   510.00   520.00   530.00
 RHO, KG/CU M    3.6735-5 3.6187-5 3.5655-5 3.5138-5 6.0613-5 5.9425-5 5.8282-5 5.7182-5
 H, KJ/KG         5244.21  5390.02  5535.90  5681.84  2918.10  3063.23  3208.38  3353.55
 U, KJ/KG         2522.04  2626.60  2731.23  2835.93   855.85   959.73  1063.63  1167.56
 G, KJ/KG        -63938.9 -64988.3 -66039.8 -67093.4 -47015.3 -48015.4 -49018.3 -50024.1
 S, KJ/(KG)(K)   104.8230 105.0422 105.2583 105.4714  99.8667 100.1541 100.4360 100.7125

 M, (1/n)           2.016    2.016    2.016    2.016    2.016    2.016    2.016    2.016
 (dLV/dLP)t      -1.00000 -1.00000 -1.00000 -1.00000 -1.00000 -1.00000 -1.00000 -1.00000
 (dLV/dLT)p        1.0000   1.0000   1.0000   1.0000   1.0000   1.0000   1.0000   1.0000
 Cp, KJ/(KG)(K)   14.5773  14.5840  14.5911  14.5984  14.5115  14.5138  14.5161  14.5186
 GAMMAs            1.3946   1.3943   1.3941   1.3938   1.3971   1.3970   1.3969   1.3968
 SON VEL,M/SEC     1948.4   1962.9   1977.3   1991.6   1697.4   1714.2   1730.9   1747.4

 TRANSPORT PROPERTIES (GASES ONLY)
   CONDUCTIVITY IN UNITS OF MILLIWATTS/(CM)(K)

 VISC,MILLIPOISE  0.15358  0.15520  0.15680  0.15840  0.12683  0.12856  0.13028  0.13200

  WITH EQUILIBRIUM REACTIONS

 Cp, KJ/(KG)(K)   14.5773  14.5840  14.5911  14.5984  14.5115  14.5138  14.5161  14.5186
 CONDUCTIVITY      3.2473   3.2827   3.3180   3.3533   2.6732   2.7098   2.7462   2.7826
 PRANDTL NUMBER    0.6894   0.6895   0.6896   0.6896   0.6885   0.6886   0.6886   0.6887

  WITH FROZEN REACTIONS

 Cp, KJ/(KG)(K)   14.5773  14.5840  14.5911  14.5984  14.5115  14.5138  14.5161  14.5186
 CONDUCTIVITY      3.2473   3.2827   3.3180   3.3533   2.6732   2.7098   2.7462   2.7826
 PRANDTL NUMBER    0.6894   0.6895   0.6896   0.6896   0.6885   0.6886   0.6886   0.6887

 MASS FRACTIONS

 *H2              1.00000  1.00000  1.00000  1.00000  1.00000  1.00000  1.00000  1.00000

  * THERMODYNAMIC PROPERTIES FITTED TO 20000.K

 NOTE. WEIGHT FRACTION OF FUEL IN TOTAL FUELS AND OF OXIDANT IN TOTAL OXIDANTS









               THERMODYNAMIC EQUILIBRIUM PROPERTIES AT ASSIGNED

                           TEMPERATURE AND PRESSURE

 CASE =                

             REACTANT                    WT FRACTION      ENERGY      TEMP
                                          (SEE NOTE)     KJ/KG-MOL      K  
 FUEL        H2                           1.0000000         0.000      0.000
 OXIDANT     H2                           1.0000000         0.000      0.000

 O/F=    1.00000  %FUEL= 50.000000  R,EQ.RATIO= 0.000000  PHI,EQ.RATIO=-1.000000

 THERMODYNAMIC PROPERTIES

 P, BAR           0.00125  0.00125  0.00125  0.00125  0.00125  0.00125  0.00125  0.00125
 T, K              540.00   550.00   560.00   570.00   580.00   590.00   600.00   610.00
 RHO, KG/CU M    5.6123-5 5.5103-5 5.4119-5 5.3170-5 5.2253-5 5.1367-5 5.0511-5 4.9683-5
 H, KJ/KG         3498.75  3643.98  3789.24  3934.53  4079.86  4225.23  4370.65  4516.11
 U, KJ/KG         1271.52  1375.50  1479.52  1583.56  1687.65  1791.77  1895.94  2000.16
 G, KJ/KG        -51032.6 -52043.7 -53057.6 -54074.0 -55092.9 -56114.4 -57138.3 -58164.7
 S, KJ/(KG)(K)   100.9839 101.2504 101.5121 101.7693 102.0221 102.2706 102.5150 102.7554

 M, (1/n)           2.016    2.016    2.016    2.016    2.016    2.016    2.016    2.016
 (dLV/dLP)t      -1.00000 -1.00000 -1.00000 -1.00000 -1.00000 -1.00000 -1.00000 -1.00000
 (dLV/dLT)p        1.0000   1.0000   1.0000   1.0000   1.0000   1.0000   1.0000   1.0000
 Cp, KJ/(KG)(K)   14.5214  14.5243  14.5276  14.5311  14.5350  14.5391  14.5436  14.5484
 GAMMAs            1.3967   1.3966   1.3965   1.3963   1.3962   1.3960   1.3959   1.3957
 SON VEL,M/SEC     1763.7   1779.9   1796.0   1811.8   1827.6   1843.1   1858.6   1873.9

 TRANSPORT PROPERTIES (GASES ONLY)
   CONDUCTIVITY IN UNITS OF MILLIWATTS/(CM)(K)

 VISC,MILLIPOISE  0.13370  0.13540  0.13709  0.13877  0.14044  0.14211  0.14377  0.14542

  WITH EQUILIBRIUM REACTIONS

 Cp, KJ/(KG)(K)   14.5214  14.5243  14.5276  14.5311  14.5350  14.5391  14.5436  14.5484
 CONDUCTIVITY      2.8188   2.8549   2.8909   2.9268   2.9627   2.9984   3.0342   3.0698
 PRANDTL NUMBER    0.6888   0.6889   0.6889   0.6890   0.6890   0.6891   0.6891   0.6892

  WITH FROZEN REACTIONS

 Cp, KJ/(KG)(K)   14.5214  14.5243  14.5276  14.5311  14.5350  14.5391  14.5436  14.5484
 CONDUCTIVITY      2.8188   2.8549   2.8909   2.9268   2.9627   2.9984   3.0342   3.0698
 PRANDTL NUMBER    0.6888   0.6889   0.6889   0.6890   0.6890   0.6891   0.6891   0.6892

 MASS FRACTIONS

 *H2              1.00000  1.00000  1.00000  1.00000  1.00000  1.00000  1.00000  1.00000

  * THERMODYNAMIC PROPERTIES FITTED TO 20000.K

 NOTE. WEIGHT FRACTION OF FUEL IN TOTAL FUELS AND OF OXIDANT IN TOTAL OXIDANTS









               THERMODYNAMIC EQUILIBRIUM PROPERTIES AT ASSIGNED

                           TEMPERATURE AND PRESSURE

 CASE =                

             REACTANT                    WT FRACTION      ENERGY      TEMP
                                          (SEE NOTE)     KJ/KG-MOL      K  
 FUEL        H2                           1.0000000         0.000      0.000
 OXIDANT     H2                           1.0000000         0.000      0.000

 O/F=    1.00000  %FUEL= 50.000000  R,EQ.RATIO= 0.000000  PHI,EQ.RATIO=-1.000000

 THERMODYNAMIC PROPERTIES

 P, BAR           0.00125  0.00125  0.00125  0.00125  0.00125  0.00125  0.00125  0.00125
 T, K              620.00   630.00   640.00   650.00   660.00   670.00   680.00   690.00
 RHO, KG/CU M    4.8882-5 4.8106-5 4.7354-5 4.6626-5 4.5919-5 4.5234-5 4.4569-5 4.3923-5
 H, KJ/KG         4661.62  4807.18  4952.80  5098.47  5244.21  5390.02  5535.90  5681.84
 U, KJ/KG         2104.42  2208.74  2313.11  2417.54  2522.04  2626.60  2731.23  2835.93
 G, KJ/KG        -59193.4 -60224.5 -61257.9 -62293.6 -63331.5 -64371.6 -65413.9 -66458.4
 S, KJ/(KG)(K)   102.9920 103.2249 103.4542 103.6801 103.9026 104.1219 104.3380 104.5510

 M, (1/n)           2.016    2.016    2.016    2.016    2.016    2.016    2.016    2.016
 (dLV/dLP)t      -1.00000 -1.00000 -1.00000 -1.00000 -1.00000 -1.00000 -1.00000 -1.00000
 (dLV/dLT)p        1.0000   1.0000   1.0000   1.0000   1.0000   1.0000   1.0000   1.0000
 Cp, KJ/(KG)(K)   14.5535  14.5590  14.5648  14.5709  14.5773  14.5840  14.5911  14.5984
 GAMMAs            1.3955   1.3953   1.3951   1.3948   1.3946   1.3943   1.3941   1.3938
 SON VEL,M/SEC     1889.1   1904.1   1919.0   1933.8   1948.4   1962.9   1977.3   1991.6

 TRANSPORT PROPERTIES (GASES ONLY)
   CONDUCTIVITY IN UNITS OF MILLIWATTS/(CM)(K)

 VISC,MILLIPOISE  0.14707  0.14871  0.15034  0.15196  0.15358  0.15520  0.15680  0.15840

  WITH EQUILIBRIUM REACTIONS

 Cp, KJ/(KG)(K)   14.5535  14.5590  14.5648  14.5709  14.5773  14.5840  14.5911  14.5984
 CONDUCTIVITY      3.1054   3.1410   3.1764   3.2119   3.2473   3.2827   3.3180   3.3533
 PRANDTL NUMBER    0.6892   0.6893   0.6893   0.6894   0.6894   0.6895   0.6896   0.6896

  WITH FROZEN REACTIONS

 Cp, KJ/(KG)(K)   14.5535  14.5590  14.5648  14.5709  14.5773  14.5840  14.5911  14.5984
 CONDUCTIVITY      3.1054   3.1410   3.1764   3.2119   3.2473   3.2827   3.3180   3.3533
 PRANDTL NUMBER    0.6892   0.6893   0.6893   0.6894   0.6894   0.6895   0.6896   0.6896

 MASS FRACTIONS

 *H2              1.00000  1.00000  1.00000  1.00000  1.00000  1.00000  1.00000  1.00000

  * THERMODYNAMIC PROPERTIES FITTED TO 20000.K

 NOTE. WEIGHT FRACTION OF FUEL IN TOTAL FUELS AND OF OXIDANT IN TOTAL OXIDANTS









               THERMODYNAMIC EQUILIBRIUM PROPERTIES AT ASSIGNED

                           TEMPERATURE AND PRESSURE

 CASE =                

             REACTANT                    WT FRACTION      ENERGY      TEMP
                                          (SEE NOTE)     KJ/KG-MOL      K  
 FUEL        H2                           1.0000000         0.000      0.000
 OXIDANT     H2                           1.0000000         0.000      0.000

 O/F=    1.00000  %FUEL= 50.000000  R,EQ.RATIO= 0.000000  PHI,EQ.RATIO=-1.000000

 THERMODYNAMIC PROPERTIES

 P, BAR           0.00150  0.00150  0.00150  0.00150  0.00150  0.00150  0.00150  0.00150
 T, K              500.00   510.00   520.00   530.00   540.00   550.00   560.00   570.00
 RHO, KG/CU M    7.2736-5 7.1310-5 6.9938-5 6.8619-5 6.7348-5 6.6124-5 6.4943-5 6.3803-5
 H, KJ/KG         2918.10  3063.23  3208.38  3353.55  3498.75  3643.98  3789.24  3934.53
 U, KJ/KG          855.85   959.73  1063.63  1167.56  1271.52  1375.50  1479.52  1583.56
 G, KJ/KG        -46639.3 -47631.9 -48627.3 -49625.5 -50626.5 -51630.1 -52636.4 -53645.3
 S, KJ/(KG)(K)    99.1148  99.4021  99.6840  99.9605 100.2319 100.4984 100.7602 101.0173

 M, (1/n)           2.016    2.016    2.016    2.016    2.016    2.016    2.016    2.016
 (dLV/dLP)t      -1.00000 -1.00000 -1.00000 -1.00000 -1.00000 -1.00000 -1.00000 -1.00000
 (dLV/dLT)p        1.0000   1.0000   1.0000   1.0000   1.0000   1.0000   1.0000   1.0000
 Cp, KJ/(KG)(K)   14.5115  14.5138  14.5161  14.5186  14.5214  14.5243  14.5276  14.5311
 GAMMAs            1.3971   1.3970   1.3969   1.3968   1.3967   1.3966   1.3965   1.3963
 SON VEL,M/SEC     1697.4   1714.2   1730.9   1747.4   1763.7   1779.9   1796.0   1811.8

 TRANSPORT PROPERTIES (GASES ONLY)
   CONDUCTIVITY IN UNITS OF MILLIWATTS/(CM)(K)

 VISC,MILLIPOISE  0.12683  0.12856  0.13028  0.13200  0.13370  0.13540  0.13709  0.13877

  WITH EQUILIBRIUM REACTIONS

 Cp, KJ/(KG)(K)   14.5115  14.5138  14.5161  14.5186  14.5214  14.5243  14.5276  14.5311
 CONDUCTIVITY      2.6732   2.7098   2.7462   2.7826   2.8188   2.8549   2.8909   2.9268
 PRANDTL NUMBER    0.6885   0.6886   0.6886   0.6887   0.6888   0.6889   0.6889   0.6890

  WITH FROZEN REACTIONS

 Cp, KJ/(KG)(K)   14.5115  14.5138  14.5161  14.5186  14.5214  14.5243  14.5276  14.5311
 CONDUCTIVITY      2.6732   2.7098   2.7462   2.7826   2.8188   2.8549   2.8909   2.9268
 PRANDTL NUMBER    0.6885   0.6886   0.6886   0.6887   0.6888   0.6889   0.6889   0.6890

 MASS FRACTIONS

 *H2              1.00000  1.00000  1.00000  1.00000  1.00000  1.00000  1.00000  1.00000

  * THERMODYNAMIC PROPERTIES FITTED TO 20000.K

 NOTE. WEIGHT FRACTION OF FUEL IN TOTAL FUELS AND OF OXIDANT IN TOTAL OXIDANTS









               THERMODYNAMIC EQUILIBRIUM PROPERTIES AT ASSIGNED

                           TEMPERATURE AND PRESSURE

 CASE =                

             REACTANT                    WT FRACTION      ENERGY      TEMP
                                          (SEE NOTE)     KJ/KG-MOL      K  
 FUEL        H2                           1.0000000         0.000      0.000
 OXIDANT     H2                           1.0000000         0.000      0.000

 O/F=    1.00000  %FUEL= 50.000000  R,EQ.RATIO= 0.000000  PHI,EQ.RATIO=-1.000000

 THERMODYNAMIC PROPERTIES

 P, BAR           0.00150  0.00150  0.00150  0.00150  0.00150  0.00150  0.00150  0.00150
 T, K              580.00   590.00   600.00   610.00   620.00   630.00   640.00   650.00
 RHO, KG/CU M    6.2703-5 6.1641-5 6.0613-5 5.9620-5 5.8658-5 5.7727-5 5.6825-5 5.5951-5
 H, KJ/KG         4079.86  4225.23  4370.65  4516.11  4661.62  4807.18  4952.80  5098.47
 U, KJ/KG         1687.65  1791.77  1895.94  2000.16  2104.42  2208.74  2313.11  2417.54
 G, KJ/KG        -54656.8 -55670.7 -56687.1 -57706.0 -58727.2 -59750.8 -60776.6 -61804.8
 S, KJ/(KG)(K)   101.2701 101.5186 101.7630 102.0034 102.2400 102.4729 102.7022 102.9281

 M, (1/n)           2.016    2.016    2.016    2.016    2.016    2.016    2.016    2.016
 (dLV/dLP)t      -1.00000 -1.00000 -1.00000 -1.00000 -1.00000 -1.00000 -1.00000 -1.00000
 (dLV/dLT)p        1.0000   1.0000   1.0000   1.0000   1.0000   1.0000   1.0000   1.0000
 Cp, KJ/(KG)(K)   14.5350  14.5391  14.5436  14.5484  14.5535  14.5590  14.5648  14.5709
 GAMMAs            1.3962   1.3960   1.3959   1.3957   1.3955   1.3953   1.3951   1.3948
 SON VEL,M/SEC     1827.6   1843.1   1858.6   1873.9   1889.1   1904.1   1919.0   1933.8

 TRANSPORT PROPERTIES (GASES ONLY)
   CONDUCTIVITY IN UNITS OF MILLIWATTS/(CM)(K)

 VISC,MILLIPOISE  0.14044  0.14211  0.14377  0.14542  0.14707  0.14871  0.15034  0.15196

  WITH EQUILIBRIUM REACTIONS

 Cp, KJ/(KG)(K)   14.5350  14.5391  14.5436  14.5484  14.5535  14.5590  14.5648  14.5709
 CONDUCTIVITY      2.9627   2.9984   3.0342   3.0698   3.1054   3.1410   3.1764   3.2119
 PRANDTL NUMBER    0.6890   0.6891   0.6891   0.6892   0.6892   0.6893   0.6893   0.6894

  WITH FROZEN REACTIONS

 Cp, KJ/(KG)(K)   14.5350  14.5391  14.5436  14.5484  14.5535  14.5590  14.5648  14.5709
 CONDUCTIVITY      2.9627   2.9984   3.0342   3.0698   3.1054   3.1410   3.1764   3.2119
 PRANDTL NUMBER    0.6890   0.6891   0.6891   0.6892   0.6892   0.6893   0.6893   0.6894

 MASS FRACTIONS

 *H2              1.00000  1.00000  1.00000  1.00000  1.00000  1.00000  1.00000  1.00000

  * THERMODYNAMIC PROPERTIES FITTED TO 20000.K

 NOTE. WEIGHT FRACTION OF FUEL IN TOTAL FUELS AND OF OXIDANT IN TOTAL OXIDANTS









               THERMODYNAMIC EQUILIBRIUM PROPERTIES AT ASSIGNED

                           TEMPERATURE AND PRESSURE

 CASE =                

             REACTANT                    WT FRACTION      ENERGY      TEMP
                                          (SEE NOTE)     KJ/KG-MOL      K  
 FUEL        H2                           1.0000000         0.000      0.000
 OXIDANT     H2                           1.0000000         0.000      0.000

 O/F=    1.00000  %FUEL= 50.000000  R,EQ.RATIO= 0.000000  PHI,EQ.RATIO=-1.000000

 THERMODYNAMIC PROPERTIES

 P, BAR           0.00150  0.00150  0.00150  0.00150  0.00200  0.00200  0.00200  0.00200
 T, K              660.00   670.00   680.00   690.00   500.00   510.00   520.00   530.00
 RHO, KG/CU M    5.5103-5 5.4281-5 5.3482-5 5.2707-5 9.6981-5 9.5080-5 9.3251-5 9.1492-5
 H, KJ/KG         5244.21  5390.02  5535.90  5681.84  2918.10  3063.23  3208.38  3353.55
 U, KJ/KG         2522.04  2626.60  2731.23  2835.93   855.85   959.73  1063.63  1167.56
 G, KJ/KG        -62835.2 -63867.8 -64902.6 -65939.5 -46046.0 -47026.7 -48010.3 -48996.7
 S, KJ/(KG)(K)   103.1506 103.3699 103.5860 103.7991  97.9282  98.2156  98.4974  98.7740

 M, (1/n)           2.016    2.016    2.016    2.016    2.016    2.016    2.016    2.016
 (dLV/dLP)t      -1.00000 -1.00000 -1.00000 -1.00000 -1.00000 -1.00000 -1.00000 -1.00000
 (dLV/dLT)p        1.0000   1.0000   1.0000   1.0000   1.0000   1.0000   1.0000   1.0000
 Cp, KJ/(KG)(K)   14.5773  14.5840  14.5911  14.5984  14.5115  14.5138  14.5161  14.5186
 GAMMAs            1.3946   1.3943   1.3941   1.3938   1.3971   1.3970   1.3969   1.3968
 SON VEL,M/SEC     1948.4   1962.9   1977.3   1991.6   1697.4   1714.2   1730.9   1747.4

 TRANSPORT PROPERTIES (GASES ONLY)
   CONDUCTIVITY IN UNITS OF MILLIWATTS/(CM)(K)

 VISC,MILLIPOISE  0.15358  0.15520  0.15680  0.15840  0.12683  0.12856  0.13028  0.13200

  WITH EQUILIBRIUM REACTIONS

 Cp, KJ/(KG)(K)   14.5773  14.5840  14.5911  14.5984  14.5115  14.5138  14.5161  14.5186
 CONDUCTIVITY      3.2473   3.2827   3.3180   3.3533   2.6732   2.7098   2.7462   2.7826
 PRANDTL NUMBER    0.6894   0.6895   0.6896   0.6896   0.6885   0.6886   0.6886   0.6887

  WITH FROZEN REACTIONS

 Cp, KJ/(KG)(K)   14.5773  14.5840  14.5911  14.5984  14.5115  14.5138  14.5161  14.5186
 CONDUCTIVITY      3.2473   3.2827   3.3180   3.3533   2.6732   2.7098   2.7462   2.7826
 PRANDTL NUMBER    0.6894   0.6895   0.6896   0.6896   0.6885   0.6886   0.6886   0.6887

 MASS FRACTIONS

 *H2              1.00000  1.00000  1.00000  1.00000  1.00000  1.00000  1.00000  1.00000

  * THERMODYNAMIC PROPERTIES FITTED TO 20000.K

 NOTE. WEIGHT FRACTION OF FUEL IN TOTAL FUELS AND OF OXIDANT IN TOTAL OXIDANTS









               THERMODYNAMIC EQUILIBRIUM PROPERTIES AT ASSIGNED

                           TEMPERATURE AND PRESSURE

 CASE =                

             REACTANT                    WT FRACTION      ENERGY      TEMP
                                          (SEE NOTE)     KJ/KG-MOL      K  
 FUEL        H2                           1.0000000         0.000      0.000
 OXIDANT     H2                           1.0000000         0.000      0.000

 O/F=    1.00000  %FUEL= 50.000000  R,EQ.RATIO= 0.000000  PHI,EQ.RATIO=-1.000000

 THERMODYNAMIC PROPERTIES

 P, BAR           0.00200  0.00200  0.00200  0.00200  0.00200  0.00200  0.00200  0.00200
 T, K              540.00   550.00   560.00   570.00   580.00   590.00   600.00   610.00
 RHO, KG/CU M    8.9797-5 8.8165-5 8.6590-5 8.5071-5 8.3605-5 8.2188-5 8.0818-5 7.9493-5
 H, KJ/KG         3498.75  3643.98  3789.24  3934.53  4079.86  4225.23  4370.65  4516.11
 U, KJ/KG         1271.52  1375.50  1479.52  1583.56  1687.65  1791.77  1895.94  2000.16
 G, KJ/KG        -49985.8 -50977.5 -51972.0 -52969.0 -53968.6 -54970.7 -55975.2 -56982.2
 S, KJ/(KG)(K)    99.0454  99.3119  99.5736  99.8308 100.0835 100.3320 100.5764 100.8169

 M, (1/n)           2.016    2.016    2.016    2.016    2.016    2.016    2.016    2.016
 (dLV/dLP)t      -1.00000 -1.00000 -1.00000 -1.00000 -1.00000 -1.00000 -1.00000 -1.00000
 (dLV/dLT)p        1.0000   1.0000   1.0000   1.0000   1.0000   1.0000   1.0000   1.0000
 Cp, KJ/(KG)(K)   14.5214  14.5243  14.5276  14.5311  14.5350  14.5391  14.5436  14.5484
 GAMMAs            1.3967   1.3966   1.3965   1.3963   1.3962   1.3960   1.3959   1.3957
 SON VEL,M/SEC     1763.7   1779.9   1796.0   1811.8   1827.6   1843.1   1858.6   1873.9

 TRANSPORT PROPERTIES (GASES ONLY)
   CONDUCTIVITY IN UNITS OF MILLIWATTS/(CM)(K)

 VISC,MILLIPOISE  0.13370  0.13540  0.13709  0.13877  0.14044  0.14211  0.14377  0.14542

  WITH EQUILIBRIUM REACTIONS

 Cp, KJ/(KG)(K)   14.5214  14.5243  14.5276  14.5311  14.5350  14.5391  14.5436  14.5484
 CONDUCTIVITY      2.8188   2.8549   2.8909   2.9268   2.9627   2.9984   3.0342   3.0698
 PRANDTL NUMBER    0.6888   0.6889   0.6889   0.6890   0.6890   0.6891   0.6891   0.6892

  WITH FROZEN REACTIONS

 Cp, KJ/(KG)(K)   14.5214  14.5243  14.5276  14.5311  14.5350  14.5391  14.5436  14.5484
 CONDUCTIVITY      2.8188   2.8549   2.8909   2.9268   2.9627   2.9984   3.0342   3.0698
 PRANDTL NUMBER    0.6888   0.6889   0.6889   0.6890   0.6890   0.6891   0.6891   0.6892

 MASS FRACTIONS

 *H2              1.00000  1.00000  1.00000  1.00000  1.00000  1.00000  1.00000  1.00000

  * THERMODYNAMIC PROPERTIES FITTED TO 20000.K

 NOTE. WEIGHT FRACTION OF FUEL IN TOTAL FUELS AND OF OXIDANT IN TOTAL OXIDANTS









               THERMODYNAMIC EQUILIBRIUM PROPERTIES AT ASSIGNED

                           TEMPERATURE AND PRESSURE

 CASE =                

             REACTANT                    WT FRACTION      ENERGY      TEMP
                                          (SEE NOTE)     KJ/KG-MOL      K  
 FUEL        H2                           1.0000000         0.000      0.000
 OXIDANT     H2                           1.0000000         0.000      0.000

 O/F=    1.00000  %FUEL= 50.000000  R,EQ.RATIO= 0.000000  PHI,EQ.RATIO=-1.000000

 THERMODYNAMIC PROPERTIES

 P, BAR           0.00200  0.00200  0.00200  0.00200  0.00200  0.00200  0.00200  0.00200
 T, K              620.00   630.00   640.00   650.00   660.00   670.00   680.00   690.00
 RHO, KG/CU M    7.8211-5 7.6969-5 7.5767-5 7.4601-5 7.3471-5 7.2374-5 7.1310-5 7.0276-5
 H, KJ/KG         4661.62  4807.18  4952.80  5098.47  5244.21  5390.02  5535.90  5681.84
 U, KJ/KG         2104.42  2208.74  2313.11  2417.54  2522.04  2626.60  2731.23  2835.93
 G, KJ/KG        -57991.5 -59003.2 -60017.2 -61033.5 -62052.1 -63072.8 -64095.7 -65120.8
 S, KJ/(KG)(K)   101.0535 101.2864 101.5157 101.7416 101.9641 102.1833 102.3994 102.6125

 M, (1/n)           2.016    2.016    2.016    2.016    2.016    2.016    2.016    2.016
 (dLV/dLP)t      -1.00000 -1.00000 -1.00000 -1.00000 -1.00000 -1.00000 -1.00000 -1.00000
 (dLV/dLT)p        1.0000   1.0000   1.0000   1.0000   1.0000   1.0000   1.0000   1.0000
 Cp, KJ/(KG)(K)   14.5535  14.5590  14.5648  14.5709  14.5773  14.5840  14.5911  14.5984
 GAMMAs            1.3955   1.3953   1.3951   1.3948   1.3946   1.3943   1.3941   1.3938
 SON VEL,M/SEC     1889.1   1904.1   1919.0   1933.8   1948.4   1962.9   1977.3   1991.6

 TRANSPORT PROPERTIES (GASES ONLY)
   CONDUCTIVITY IN UNITS OF MILLIWATTS/(CM)(K)

 VISC,MILLIPOISE  0.14707  0.14871  0.15034  0.15196  0.15358  0.15520  0.15680  0.15840

  WITH EQUILIBRIUM REACTIONS

 Cp, KJ/(KG)(K)   14.5535  14.5590  14.5648  14.5709  14.5773  14.5840  14.5911  14.5984
 CONDUCTIVITY      3.1054   3.1410   3.1764   3.2119   3.2473   3.2827   3.3180   3.3533
 PRANDTL NUMBER    0.6892   0.6893   0.6893   0.6894   0.6894   0.6895   0.6896   0.6896

  WITH FROZEN REACTIONS

 Cp, KJ/(KG)(K)   14.5535  14.5590  14.5648  14.5709  14.5773  14.5840  14.5911  14.5984
 CONDUCTIVITY      3.1054   3.1410   3.1764   3.2119   3.2473   3.2827   3.3180   3.3533
 PRANDTL NUMBER    0.6892   0.6893   0.6893   0.6894   0.6894   0.6895   0.6896   0.6896

 MASS FRACTIONS

 *H2              1.00000  1.00000  1.00000  1.00000  1.00000  1.00000  1.00000  1.00000

  * THERMODYNAMIC PROPERTIES FITTED TO 20000.K

 NOTE. WEIGHT FRACTION OF FUEL IN TOTAL FUELS AND OF OXIDANT IN TOTAL OXIDANTS









               THERMODYNAMIC EQUILIBRIUM PROPERTIES AT ASSIGNED

                           TEMPERATURE AND PRESSURE

 CASE =                

             REACTANT                    WT FRACTION      ENERGY      TEMP
                                          (SEE NOTE)     KJ/KG-MOL      K  
 FUEL        H2                           1.0000000         0.000      0.000
 OXIDANT     H2                           1.0000000         0.000      0.000

 O/F=    1.00000  %FUEL= 50.000000  R,EQ.RATIO= 0.000000  PHI,EQ.RATIO=-1.000000

 THERMODYNAMIC PROPERTIES

 P, BAR           0.00250  0.00250  0.00250  0.00250  0.00250  0.00250  0.00250  0.00250
 T, K              500.00   510.00   520.00   530.00   540.00   550.00   560.00   570.00
 RHO, KG/CU M    1.2123-4 1.1885-4 1.1656-4 1.1436-4 1.1225-4 1.1021-4 1.0824-4 1.0634-4
 H, KJ/KG         2918.10  3063.23  3208.38  3353.55  3498.75  3643.98  3789.24  3934.53
 U, KJ/KG          855.85   959.73  1063.63  1167.56  1271.52  1375.50  1479.52  1583.56
 G, KJ/KG        -45585.8 -46557.3 -47531.7 -48508.9 -49488.8 -50471.4 -51456.6 -52444.4
 S, KJ/(KG)(K)    97.0079  97.2952  97.5771  97.8536  98.1250  98.3915  98.6532  98.9104

 M, (1/n)           2.016    2.016    2.016    2.016    2.016    2.016    2.016    2.016
 (dLV/dLP)t      -1.00000 -1.00000 -1.00000 -1.00000 -1.00000 -1.00000 -1.00000 -1.00000
 (dLV/dLT)p        1.0000   1.0000   1.0000   1.0000   1.0000   1.0000   1.0000   1.0000
 Cp, KJ/(KG)(K)   14.5115  14.5138  14.5161  14.5186  14.5214  14.5243  14.5276  14.5311
 GAMMAs            1.3971   1.3970   1.3969   1.3968   1.3967   1.3966   1.3965   1.3963
 SON VEL,M/SEC     1697.4   1714.2   1730.9   1747.4   1763.7   1779.9   1796.0   1811.8

 TRANSPORT PROPERTIES (GASES ONLY)
   CONDUCTIVITY IN UNITS OF MILLIWATTS/(CM)(K)

 VISC,MILLIPOISE  0.12683  0.12856  0.13028  0.13200  0.13370  0.13540  0.13709  0.13877

  WITH EQUILIBRIUM REACTIONS

 Cp, KJ/(KG)(K)   14.5115  14.5138  14.5161  14.5186  14.5214  14.5243  14.5276  14.5311
 CONDUCTIVITY      2.6732   2.7098   2.7462   2.7826   2.8188   2.8549   2.8909   2.9268
 PRANDTL NUMBER    0.6885   0.6886   0.6886   0.6887   0.6888   0.6889   0.6889   0.6890

  WITH FROZEN REACTIONS

 Cp, KJ/(KG)(K)   14.5115  14.5138  14.5161  14.5186  14.5214  14.5243  14.5276  14.5311
 CONDUCTIVITY      2.6732   2.7098   2.7462   2.7826   2.8188   2.8549   2.8909   2.9268
 PRANDTL NUMBER    0.6885   0.6886   0.6886   0.6887   0.6888   0.6889   0.6889   0.6890

 MASS FRACTIONS

 *H2              1.00000  1.00000  1.00000  1.00000  1.00000  1.00000  1.00000  1.00000

  * THERMODYNAMIC PROPERTIES FITTED TO 20000.K

 NOTE. WEIGHT FRACTION OF FUEL IN TOTAL FUELS AND OF OXIDANT IN TOTAL OXIDANTS









               THERMODYNAMIC EQUILIBRIUM PROPERTIES AT ASSIGNED

                           TEMPERATURE AND PRESSURE

 CASE =                

             REACTANT                    WT FRACTION      ENERGY      TEMP
                                          (SEE NOTE)     KJ/KG-MOL      K  
 FUEL        H2                           1.0000000         0.000      0.000
 OXIDANT     H2                           1.0000000         0.000      0.000

 O/F=    1.00000  %FUEL= 50.000000  R,EQ.RATIO= 0.000000  PHI,EQ.RATIO=-1.000000

 THERMODYNAMIC PROPERTIES

 P, BAR           0.00250  0.00250  0.00250  0.00250  0.00250  0.00250  0.00250  0.00250
 T, K              580.00   590.00   600.00   610.00   620.00   630.00   640.00   650.00
 RHO, KG/CU M    1.0451-4 1.0273-4 1.0102-4 9.9366-5 9.7763-5 9.6212-5 9.4708-5 9.3251-5
 H, KJ/KG         4079.86  4225.23  4370.65  4516.11  4661.62  4807.18  4952.80  5098.47
 U, KJ/KG         1687.65  1791.77  1895.94  2000.16  2104.42  2208.74  2313.11  2417.54
 G, KJ/KG        -53434.8 -54427.7 -55423.0 -56420.8 -57420.9 -58423.4 -59428.2 -60435.3
 S, KJ/(KG)(K)    99.1632  99.4117  99.6561  99.8965 100.1331 100.3660 100.5953 100.8212

 M, (1/n)           2.016    2.016    2.016    2.016    2.016    2.016    2.016    2.016
 (dLV/dLP)t      -1.00000 -1.00000 -1.00000 -1.00000 -1.00000 -1.00000 -1.00000 -1.00000
 (dLV/dLT)p        1.0000   1.0000   1.0000   1.0000   1.0000   1.0000   1.0000   1.0000
 Cp, KJ/(KG)(K)   14.5350  14.5391  14.5436  14.5484  14.5535  14.5590  14.5648  14.5709
 GAMMAs            1.3962   1.3960   1.3959   1.3957   1.3955   1.3953   1.3951   1.3948
 SON VEL,M/SEC     1827.6   1843.1   1858.6   1873.9   1889.1   1904.1   1919.0   1933.8

 TRANSPORT PROPERTIES (GASES ONLY)
   CONDUCTIVITY IN UNITS OF MILLIWATTS/(CM)(K)

 VISC,MILLIPOISE  0.14044  0.14211  0.14377  0.14542  0.14707  0.14871  0.15034  0.15196

  WITH EQUILIBRIUM REACTIONS

 Cp, KJ/(KG)(K)   14.5350  14.5391  14.5436  14.5484  14.5535  14.5590  14.5648  14.5709
 CONDUCTIVITY      2.9627   2.9984   3.0342   3.0698   3.1054   3.1410   3.1764   3.2119
 PRANDTL NUMBER    0.6890   0.6891   0.6891   0.6892   0.6892   0.6893   0.6893   0.6894

  WITH FROZEN REACTIONS

 Cp, KJ/(KG)(K)   14.5350  14.5391  14.5436  14.5484  14.5535  14.5590  14.5648  14.5709
 CONDUCTIVITY      2.9627   2.9984   3.0342   3.0698   3.1054   3.1410   3.1764   3.2119
 PRANDTL NUMBER    0.6890   0.6891   0.6891   0.6892   0.6892   0.6893   0.6893   0.6894

 MASS FRACTIONS

 *H2              1.00000  1.00000  1.00000  1.00000  1.00000  1.00000  1.00000  1.00000

  * THERMODYNAMIC PROPERTIES FITTED TO 20000.K

 NOTE. WEIGHT FRACTION OF FUEL IN TOTAL FUELS AND OF OXIDANT IN TOTAL OXIDANTS









               THERMODYNAMIC EQUILIBRIUM PROPERTIES AT ASSIGNED

                           TEMPERATURE AND PRESSURE

 CASE =                

             REACTANT                    WT FRACTION      ENERGY      TEMP
                                          (SEE NOTE)     KJ/KG-MOL      K  
 FUEL        H2                           1.0000000         0.000      0.000
 OXIDANT     H2                           1.0000000         0.000      0.000

 O/F=    1.00000  %FUEL= 50.000000  R,EQ.RATIO= 0.000000  PHI,EQ.RATIO=-1.000000

 THERMODYNAMIC PROPERTIES

 P, BAR           0.00250  0.00250  0.00250  0.00250  0.00300  0.00300  0.00300  0.00300
 T, K              660.00   670.00   680.00   690.00   500.00   510.00   520.00   530.00
 RHO, KG/CU M    9.1838-5 9.0468-5 8.9137-5 8.7845-5 1.4547-4 1.4262-4 1.3988-4 1.3724-4
 H, KJ/KG         5244.21  5390.02  5535.90  5681.84  2918.10  3063.23  3208.38  3353.55
 U, KJ/KG         2522.04  2626.60  2731.23  2835.93   855.85   959.73  1063.63  1167.56
 G, KJ/KG        -61444.6 -62456.2 -63469.9 -64485.7 -45209.8 -46173.8 -47140.7 -48110.3
 S, KJ/(KG)(K)   101.0437 101.2630 101.4791 101.6921  96.2559  96.5433  96.8251  97.1016

 M, (1/n)           2.016    2.016    2.016    2.016    2.016    2.016    2.016    2.016
 (dLV/dLP)t      -1.00000 -1.00000 -1.00000 -1.00000 -1.00000 -1.00000 -1.00000 -1.00000
 (dLV/dLT)p        1.0000   1.0000   1.0000   1.0000   1.0000   1.0000   1.0000   1.0000
 Cp, KJ/(KG)(K)   14.5773  14.5840  14.5911  14.5984  14.5115  14.5138  14.5161  14.5186
 GAMMAs            1.3946   1.3943   1.3941   1.3938   1.3971   1.3970   1.3969   1.3968
 SON VEL,M/SEC     1948.4   1962.9   1977.3   1991.6   1697.4   1714.2   1730.9   1747.4

 TRANSPORT PROPERTIES (GASES ONLY)
   CONDUCTIVITY IN UNITS OF MILLIWATTS/(CM)(K)

 VISC,MILLIPOISE  0.15358  0.15520  0.15680  0.15840  0.12683  0.12856  0.13028  0.13200

  WITH EQUILIBRIUM REACTIONS

 Cp, KJ/(KG)(K)   14.5773  14.5840  14.5911  14.5984  14.5115  14.5138  14.5161  14.5186
 CONDUCTIVITY      3.2473   3.2827   3.3180   3.3533   2.6732   2.7098   2.7462   2.7826
 PRANDTL NUMBER    0.6894   0.6895   0.6896   0.6896   0.6885   0.6886   0.6886   0.6887

  WITH FROZEN REACTIONS

 Cp, KJ/(KG)(K)   14.5773  14.5840  14.5911  14.5984  14.5115  14.5138  14.5161  14.5186
 CONDUCTIVITY      3.2473   3.2827   3.3180   3.3533   2.6732   2.7098   2.7462   2.7826
 PRANDTL NUMBER    0.6894   0.6895   0.6896   0.6896   0.6885   0.6886   0.6886   0.6887

 MASS FRACTIONS

 *H2              1.00000  1.00000  1.00000  1.00000  1.00000  1.00000  1.00000  1.00000

  * THERMODYNAMIC PROPERTIES FITTED TO 20000.K

 NOTE. WEIGHT FRACTION OF FUEL IN TOTAL FUELS AND OF OXIDANT IN TOTAL OXIDANTS









               THERMODYNAMIC EQUILIBRIUM PROPERTIES AT ASSIGNED

                           TEMPERATURE AND PRESSURE

 CASE =                

             REACTANT                    WT FRACTION      ENERGY      TEMP
                                          (SEE NOTE)     KJ/KG-MOL      K  
 FUEL        H2                           1.0000000         0.000      0.000
 OXIDANT     H2                           1.0000000         0.000      0.000

 O/F=    1.00000  %FUEL= 50.000000  R,EQ.RATIO= 0.000000  PHI,EQ.RATIO=-1.000000

 THERMODYNAMIC PROPERTIES

 P, BAR           0.00300  0.00300  0.00300  0.00300  0.00300  0.00300  0.00300  0.00300
 T, K              540.00   550.00   560.00   570.00   580.00   590.00   600.00   610.00
 RHO, KG/CU M    1.3470-4 1.3225-4 1.2989-4 1.2761-4 1.2541-4 1.2328-4 1.2123-4 1.1924-4
 H, KJ/KG         3498.75  3643.98  3789.24  3934.53  4079.86  4225.23  4370.65  4516.11
 U, KJ/KG         1271.52  1375.50  1479.52  1583.56  1687.65  1791.77  1895.94  2000.16
 G, KJ/KG        -49082.7 -50057.8 -51035.5 -52015.8 -52998.6 -53984.0 -54971.8 -55962.0
 S, KJ/(KG)(K)    97.3730  97.6395  97.9013  98.1584  98.4112  98.6597  98.9041  99.1445

 M, (1/n)           2.016    2.016    2.016    2.016    2.016    2.016    2.016    2.016
 (dLV/dLP)t      -1.00000 -1.00000 -1.00000 -1.00000 -1.00000 -1.00000 -1.00000 -1.00000
 (dLV/dLT)p        1.0000   1.0000   1.0000   1.0000   1.0000   1.0000   1.0000   1.0000
 Cp, KJ/(KG)(K)   14.5214  14.5243  14.5276  14.5311  14.5350  14.5391  14.5436  14.5484
 GAMMAs            1.3967   1.3966   1.3965   1.3963   1.3962   1.3960   1.3959   1.3957
 SON VEL,M/SEC     1763.7   1779.9   1796.0   1811.8   1827.6   1843.1   1858.6   1873.9

 TRANSPORT PROPERTIES (GASES ONLY)
   CONDUCTIVITY IN UNITS OF MILLIWATTS/(CM)(K)

 VISC,MILLIPOISE  0.13370  0.13540  0.13709  0.13877  0.14044  0.14211  0.14377  0.14542

  WITH EQUILIBRIUM REACTIONS

 Cp, KJ/(KG)(K)   14.5214  14.5243  14.5276  14.5311  14.5350  14.5391  14.5436  14.5484
 CONDUCTIVITY      2.8188   2.8549   2.8909   2.9268   2.9627   2.9984   3.0342   3.0698
 PRANDTL NUMBER    0.6888   0.6889   0.6889   0.6890   0.6890   0.6891   0.6891   0.6892

  WITH FROZEN REACTIONS

 Cp, KJ/(KG)(K)   14.5214  14.5243  14.5276  14.5311  14.5350  14.5391  14.5436  14.5484
 CONDUCTIVITY      2.8188   2.8549   2.8909   2.9268   2.9627   2.9984   3.0342   3.0698
 PRANDTL NUMBER    0.6888   0.6889   0.6889   0.6890   0.6890   0.6891   0.6891   0.6892

 MASS FRACTIONS

 *H2              1.00000  1.00000  1.00000  1.00000  1.00000  1.00000  1.00000  1.00000

  * THERMODYNAMIC PROPERTIES FITTED TO 20000.K

 NOTE. WEIGHT FRACTION OF FUEL IN TOTAL FUELS AND OF OXIDANT IN TOTAL OXIDANTS









               THERMODYNAMIC EQUILIBRIUM PROPERTIES AT ASSIGNED

                           TEMPERATURE AND PRESSURE

 CASE =                

             REACTANT                    WT FRACTION      ENERGY      TEMP
                                          (SEE NOTE)     KJ/KG-MOL      K  
 FUEL        H2                           1.0000000         0.000      0.000
 OXIDANT     H2                           1.0000000         0.000      0.000

 O/F=    1.00000  %FUEL= 50.000000  R,EQ.RATIO= 0.000000  PHI,EQ.RATIO=-1.000000

 THERMODYNAMIC PROPERTIES

 P, BAR           0.00300  0.00300  0.00300  0.00300  0.00300  0.00300  0.00300  0.00300
 T, K              620.00   630.00   640.00   650.00   660.00   670.00   680.00   690.00
 RHO, KG/CU M    1.1732-4 1.1545-4 1.1365-4 1.1190-4 1.1021-4 1.0856-4 1.0696-4 1.0541-4
 H, KJ/KG         4661.62  4807.18  4952.80  5098.47  5244.21  5390.02  5535.90  5681.84
 U, KJ/KG         2104.42  2208.74  2313.11  2417.54  2522.04  2626.60  2731.23  2835.93
 G, KJ/KG        -56954.7 -57949.7 -58946.9 -59946.5 -60948.3 -61952.3 -62958.5 -63966.9
 S, KJ/(KG)(K)    99.3811  99.6140  99.8433 100.0692 100.2917 100.5110 100.7271 100.9402

 M, (1/n)           2.016    2.016    2.016    2.016    2.016    2.016    2.016    2.016
 (dLV/dLP)t      -1.00000 -1.00000 -1.00000 -1.00000 -1.00000 -1.00000 -1.00000 -1.00000
 (dLV/dLT)p        1.0000   1.0000   1.0000   1.0000   1.0000   1.0000   1.0000   1.0000
 Cp, KJ/(KG)(K)   14.5535  14.5590  14.5648  14.5709  14.5773  14.5840  14.5911  14.5984
 GAMMAs            1.3955   1.3953   1.3951   1.3948   1.3946   1.3943   1.3941   1.3938
 SON VEL,M/SEC     1889.1   1904.1   1919.0   1933.8   1948.4   1962.9   1977.3   1991.6

 TRANSPORT PROPERTIES (GASES ONLY)
   CONDUCTIVITY IN UNITS OF MILLIWATTS/(CM)(K)

 VISC,MILLIPOISE  0.14707  0.14871  0.15034  0.15196  0.15358  0.15520  0.15680  0.15840

  WITH EQUILIBRIUM REACTIONS

 Cp, KJ/(KG)(K)   14.5535  14.5590  14.5648  14.5709  14.5773  14.5840  14.5911  14.5984
 CONDUCTIVITY      3.1054   3.1410   3.1764   3.2119   3.2473   3.2827   3.3180   3.3533
 PRANDTL NUMBER    0.6892   0.6893   0.6893   0.6894   0.6894   0.6895   0.6896   0.6896

  WITH FROZEN REACTIONS

 Cp, KJ/(KG)(K)   14.5535  14.5590  14.5648  14.5709  14.5773  14.5840  14.5911  14.5984
 CONDUCTIVITY      3.1054   3.1410   3.1764   3.2119   3.2473   3.2827   3.3180   3.3533
 PRANDTL NUMBER    0.6892   0.6893   0.6893   0.6894   0.6894   0.6895   0.6896   0.6896

 MASS FRACTIONS

 *H2              1.00000  1.00000  1.00000  1.00000  1.00000  1.00000  1.00000  1.00000

  * THERMODYNAMIC PROPERTIES FITTED TO 20000.K

 NOTE. WEIGHT FRACTION OF FUEL IN TOTAL FUELS AND OF OXIDANT IN TOTAL OXIDANTS









               THERMODYNAMIC EQUILIBRIUM PROPERTIES AT ASSIGNED

                           TEMPERATURE AND PRESSURE

 CASE =                

             REACTANT                    WT FRACTION      ENERGY      TEMP
                                          (SEE NOTE)     KJ/KG-MOL      K  
 FUEL        H2                           1.0000000         0.000      0.000
 OXIDANT     H2                           1.0000000         0.000      0.000

 O/F=    1.00000  %FUEL= 50.000000  R,EQ.RATIO= 0.000000  PHI,EQ.RATIO=-1.000000

 THERMODYNAMIC PROPERTIES

 P, BAR           0.00400  0.00400  0.00400  0.00400  0.00400  0.00400  0.00400  0.00400
 T, K              500.00   510.00   520.00   530.00   540.00   550.00   560.00   570.00
 RHO, KG/CU M    1.9396-4 1.9016-4 1.8650-4 1.8298-4 1.7959-4 1.7633-4 1.7318-4 1.7014-4
 H, KJ/KG         2918.10  3063.23  3208.38  3353.55  3498.75  3643.98  3789.24  3934.53
 U, KJ/KG          855.85   959.73  1063.63  1167.56  1271.52  1375.50  1479.52  1583.56
 G, KJ/KG        -44616.6 -45568.7 -46523.7 -47481.4 -48442.0 -49405.2 -50371.0 -51339.4
 S, KJ/(KG)(K)    95.0693  95.3567  95.6386  95.9151  96.1865  96.4530  96.7147  96.9719

 M, (1/n)           2.016    2.016    2.016    2.016    2.016    2.016    2.016    2.016
 (dLV/dLP)t      -1.00000 -1.00000 -1.00000 -1.00000 -1.00000 -1.00000 -1.00000 -1.00000
 (dLV/dLT)p        1.0000   1.0000   1.0000   1.0000   1.0000   1.0000   1.0000   1.0000
 Cp, KJ/(KG)(K)   14.5115  14.5138  14.5161  14.5186  14.5214  14.5243  14.5276  14.5311
 GAMMAs            1.3971   1.3970   1.3969   1.3968   1.3967   1.3966   1.3965   1.3963
 SON VEL,M/SEC     1697.4   1714.2   1730.9   1747.4   1763.7   1779.9   1796.0   1811.8

 TRANSPORT PROPERTIES (GASES ONLY)
   CONDUCTIVITY IN UNITS OF MILLIWATTS/(CM)(K)

 VISC,MILLIPOISE  0.12683  0.12856  0.13028  0.13200  0.13370  0.13540  0.13709  0.13877

  WITH EQUILIBRIUM REACTIONS

 Cp, KJ/(KG)(K)   14.5115  14.5138  14.5161  14.5186  14.5214  14.5243  14.5276  14.5311
 CONDUCTIVITY      2.6732   2.7098   2.7462   2.7826   2.8188   2.8549   2.8909   2.9268
 PRANDTL NUMBER    0.6885   0.6886   0.6886   0.6887   0.6888   0.6889   0.6889   0.6890

  WITH FROZEN REACTIONS

 Cp, KJ/(KG)(K)   14.5115  14.5138  14.5161  14.5186  14.5214  14.5243  14.5276  14.5311
 CONDUCTIVITY      2.6732   2.7098   2.7462   2.7826   2.8188   2.8549   2.8909   2.9268
 PRANDTL NUMBER    0.6885   0.6886   0.6886   0.6887   0.6888   0.6889   0.6889   0.6890

 MASS FRACTIONS

 *H2              1.00000  1.00000  1.00000  1.00000  1.00000  1.00000  1.00000  1.00000

  * THERMODYNAMIC PROPERTIES FITTED TO 20000.K

 NOTE. WEIGHT FRACTION OF FUEL IN TOTAL FUELS AND OF OXIDANT IN TOTAL OXIDANTS









               THERMODYNAMIC EQUILIBRIUM PROPERTIES AT ASSIGNED

                           TEMPERATURE AND PRESSURE

 CASE =                

             REACTANT                    WT FRACTION      ENERGY      TEMP
                                          (SEE NOTE)     KJ/KG-MOL      K  
 FUEL        H2                           1.0000000         0.000      0.000
 OXIDANT     H2                           1.0000000         0.000      0.000

 O/F=    1.00000  %FUEL= 50.000000  R,EQ.RATIO= 0.000000  PHI,EQ.RATIO=-1.000000

 THERMODYNAMIC PROPERTIES

 P, BAR           0.00400  0.00400  0.00400  0.00400  0.00400  0.00400  0.00400  0.00400
 T, K              580.00   590.00   600.00   610.00   620.00   630.00   640.00   650.00
 RHO, KG/CU M    1.6721-4 1.6438-4 1.6164-4 1.5899-4 1.5642-4 1.5394-4 1.5153-4 1.4920-4
 H, KJ/KG         4079.86  4225.23  4370.65  4516.11  4661.62  4807.18  4952.80  5098.47
 U, KJ/KG         1687.65  1791.77  1895.94  2000.16  2104.42  2208.74  2313.11  2417.54
 G, KJ/KG        -52310.4 -53283.9 -54259.9 -55238.3 -56219.0 -57202.1 -58187.6 -59175.3
 S, KJ/(KG)(K)    97.2246  97.4731  97.7175  97.9580  98.1946  98.4275  98.6568  98.8827

 M, (1/n)           2.016    2.016    2.016    2.016    2.016    2.016    2.016    2.016
 (dLV/dLP)t      -1.00000 -1.00000 -1.00000 -1.00000 -1.00000 -1.00000 -1.00000 -1.00000
 (dLV/dLT)p        1.0000   1.0000   1.0000   1.0000   1.0000   1.0000   1.0000   1.0000
 Cp, KJ/(KG)(K)   14.5350  14.5391  14.5436  14.5484  14.5535  14.5590  14.5648  14.5709
 GAMMAs            1.3962   1.3960   1.3959   1.3957   1.3955   1.3953   1.3951   1.3948
 SON VEL,M/SEC     1827.6   1843.1   1858.6   1873.9   1889.1   1904.1   1919.0   1933.8

 TRANSPORT PROPERTIES (GASES ONLY)
   CONDUCTIVITY IN UNITS OF MILLIWATTS/(CM)(K)

 VISC,MILLIPOISE  0.14044  0.14211  0.14377  0.14542  0.14707  0.14871  0.15034  0.15196

  WITH EQUILIBRIUM REACTIONS

 Cp, KJ/(KG)(K)   14.5350  14.5391  14.5436  14.5484  14.5535  14.5590  14.5648  14.5709
 CONDUCTIVITY      2.9627   2.9984   3.0342   3.0698   3.1054   3.1410   3.1764   3.2119
 PRANDTL NUMBER    0.6890   0.6891   0.6891   0.6892   0.6892   0.6893   0.6893   0.6894

  WITH FROZEN REACTIONS

 Cp, KJ/(KG)(K)   14.5350  14.5391  14.5436  14.5484  14.5535  14.5590  14.5648  14.5709
 CONDUCTIVITY      2.9627   2.9984   3.0342   3.0698   3.1054   3.1410   3.1764   3.2119
 PRANDTL NUMBER    0.6890   0.6891   0.6891   0.6892   0.6892   0.6893   0.6893   0.6894

 MASS FRACTIONS

 *H2              1.00000  1.00000  1.00000  1.00000  1.00000  1.00000  1.00000  1.00000

  * THERMODYNAMIC PROPERTIES FITTED TO 20000.K

 NOTE. WEIGHT FRACTION OF FUEL IN TOTAL FUELS AND OF OXIDANT IN TOTAL OXIDANTS









               THERMODYNAMIC EQUILIBRIUM PROPERTIES AT ASSIGNED

                           TEMPERATURE AND PRESSURE

 CASE =                

             REACTANT                    WT FRACTION      ENERGY      TEMP
                                          (SEE NOTE)     KJ/KG-MOL      K  
 FUEL        H2                           1.0000000         0.000      0.000
 OXIDANT     H2                           1.0000000         0.000      0.000

 O/F=    1.00000  %FUEL= 50.000000  R,EQ.RATIO= 0.000000  PHI,EQ.RATIO=-1.000000

 THERMODYNAMIC PROPERTIES

 P, BAR           0.00400  0.00400  0.00400  0.00400  0.00500  0.00500  0.00500  0.00500
 T, K              660.00   670.00   680.00   690.00   500.00   510.00   520.00   530.00
 RHO, KG/CU M    1.4694-4 1.4475-4 1.4262-4 1.4055-4 2.4245-4 2.3770-4 2.3313-4 2.2873-4
 H, KJ/KG         5244.21  5390.02  5535.90  5681.84  2918.10  3063.23  3208.38  3353.55
 U, KJ/KG         2522.04  2626.60  2731.23  2835.93   855.85   959.73  1063.63  1167.56
 G, KJ/KG        -60165.2 -61157.4 -62151.7 -63148.2 -44156.4 -45099.3 -46045.1 -46993.7
 S, KJ/(KG)(K)    99.1052  99.3244  99.5406  99.7536  94.1490  94.4363  94.7182  94.9947

 M, (1/n)           2.016    2.016    2.016    2.016    2.016    2.016    2.016    2.016
 (dLV/dLP)t      -1.00000 -1.00000 -1.00000 -1.00000 -1.00000 -1.00000 -1.00000 -1.00000
 (dLV/dLT)p        1.0000   1.0000   1.0000   1.0000   1.0000   1.0000   1.0000   1.0000
 Cp, KJ/(KG)(K)   14.5773  14.5840  14.5911  14.5984  14.5115  14.5138  14.5161  14.5186
 GAMMAs            1.3946   1.3943   1.3941   1.3938   1.3971   1.3970   1.3969   1.3968
 SON VEL,M/SEC     1948.4   1962.9   1977.3   1991.6   1697.4   1714.2   1730.9   1747.4

 TRANSPORT PROPERTIES (GASES ONLY)
   CONDUCTIVITY IN UNITS OF MILLIWATTS/(CM)(K)

 VISC,MILLIPOISE  0.15358  0.15520  0.15680  0.15840  0.12683  0.12856  0.13028  0.13200

  WITH EQUILIBRIUM REACTIONS

 Cp, KJ/(KG)(K)   14.5773  14.5840  14.5911  14.5984  14.5115  14.5138  14.5161  14.5186
 CONDUCTIVITY      3.2473   3.2827   3.3180   3.3533   2.6732   2.7098   2.7462   2.7826
 PRANDTL NUMBER    0.6894   0.6895   0.6896   0.6896   0.6885   0.6886   0.6886   0.6887

  WITH FROZEN REACTIONS

 Cp, KJ/(KG)(K)   14.5773  14.5840  14.5911  14.5984  14.5115  14.5138  14.5161  14.5186
 CONDUCTIVITY      3.2473   3.2827   3.3180   3.3533   2.6732   2.7098   2.7462   2.7826
 PRANDTL NUMBER    0.6894   0.6895   0.6896   0.6896   0.6885   0.6886   0.6886   0.6887

 MASS FRACTIONS

 *H2              1.00000  1.00000  1.00000  1.00000  1.00000  1.00000  1.00000  1.00000

  * THERMODYNAMIC PROPERTIES FITTED TO 20000.K

 NOTE. WEIGHT FRACTION OF FUEL IN TOTAL FUELS AND OF OXIDANT IN TOTAL OXIDANTS









               THERMODYNAMIC EQUILIBRIUM PROPERTIES AT ASSIGNED

                           TEMPERATURE AND PRESSURE

 CASE =                

             REACTANT                    WT FRACTION      ENERGY      TEMP
                                          (SEE NOTE)     KJ/KG-MOL      K  
 FUEL        H2                           1.0000000         0.000      0.000
 OXIDANT     H2                           1.0000000         0.000      0.000

 O/F=    1.00000  %FUEL= 50.000000  R,EQ.RATIO= 0.000000  PHI,EQ.RATIO=-1.000000

 THERMODYNAMIC PROPERTIES

 P, BAR           0.00500  0.00500  0.00500  0.00500  0.00500  0.00500  0.00500  0.00500
 T, K              540.00   550.00   560.00   570.00   580.00   590.00   600.00   610.00
 RHO, KG/CU M    2.2449-4 2.2041-4 2.1648-4 2.1268-4 2.0901-4 2.0547-4 2.0204-4 1.9873-4
 H, KJ/KG         3498.75  3643.98  3789.24  3934.53  4079.86  4225.23  4370.65  4516.11
 U, KJ/KG         1271.52  1375.50  1479.52  1583.56  1687.65  1791.77  1895.94  2000.16
 G, KJ/KG        -47945.0 -48899.0 -49855.6 -50814.8 -51776.6 -52740.9 -53707.7 -54676.8
 S, KJ/(KG)(K)    95.2661  95.5326  95.7944  96.0515  96.3043  96.5528  96.7972  97.0376

 M, (1/n)           2.016    2.016    2.016    2.016    2.016    2.016    2.016    2.016
 (dLV/dLP)t      -1.00000 -1.00000 -1.00000 -1.00000 -1.00000 -1.00000 -1.00000 -1.00000
 (dLV/dLT)p        1.0000   1.0000   1.0000   1.0000   1.0000   1.0000   1.0000   1.0000
 Cp, KJ/(KG)(K)   14.5214  14.5243  14.5276  14.5311  14.5350  14.5391  14.5436  14.5484
 GAMMAs            1.3967   1.3966   1.3965   1.3963   1.3962   1.3960   1.3959   1.3957
 SON VEL,M/SEC     1763.7   1779.9   1796.0   1811.8   1827.6   1843.1   1858.6   1873.9

 TRANSPORT PROPERTIES (GASES ONLY)
   CONDUCTIVITY IN UNITS OF MILLIWATTS/(CM)(K)

 VISC,MILLIPOISE  0.13370  0.13540  0.13709  0.13877  0.14044  0.14211  0.14377  0.14542

  WITH EQUILIBRIUM REACTIONS

 Cp, KJ/(KG)(K)   14.5214  14.5243  14.5276  14.5311  14.5350  14.5391  14.5436  14.5484
 CONDUCTIVITY      2.8188   2.8549   2.8909   2.9268   2.9627   2.9984   3.0342   3.0698
 PRANDTL NUMBER    0.6888   0.6889   0.6889   0.6890   0.6890   0.6891   0.6891   0.6892

  WITH FROZEN REACTIONS

 Cp, KJ/(KG)(K)   14.5214  14.5243  14.5276  14.5311  14.5350  14.5391  14.5436  14.5484
 CONDUCTIVITY      2.8188   2.8549   2.8909   2.9268   2.9627   2.9984   3.0342   3.0698
 PRANDTL NUMBER    0.6888   0.6889   0.6889   0.6890   0.6890   0.6891   0.6891   0.6892

 MASS FRACTIONS

 *H2              1.00000  1.00000  1.00000  1.00000  1.00000  1.00000  1.00000  1.00000

  * THERMODYNAMIC PROPERTIES FITTED TO 20000.K

 NOTE. WEIGHT FRACTION OF FUEL IN TOTAL FUELS AND OF OXIDANT IN TOTAL OXIDANTS









               THERMODYNAMIC EQUILIBRIUM PROPERTIES AT ASSIGNED

                           TEMPERATURE AND PRESSURE

 CASE =                

             REACTANT                    WT FRACTION      ENERGY      TEMP
                                          (SEE NOTE)     KJ/KG-MOL      K  
 FUEL        H2                           1.0000000         0.000      0.000
 OXIDANT     H2                           1.0000000         0.000      0.000

 O/F=    1.00000  %FUEL= 50.000000  R,EQ.RATIO= 0.000000  PHI,EQ.RATIO=-1.000000

 THERMODYNAMIC PROPERTIES

 P, BAR           0.00500  0.00500  0.00500  0.00500  0.00500  0.00500  0.00500  0.00500
 T, K              620.00   630.00   640.00   650.00   660.00   670.00   680.00   690.00
 RHO, KG/CU M    1.9553-4 1.9242-4 1.8942-4 1.8650-4 1.8368-4 1.8094-4 1.7827-4 1.7569-4
 H, KJ/KG         4661.62  4807.18  4952.80  5098.47  5244.21  5390.02  5535.90  5681.84
 U, KJ/KG         2104.42  2208.74  2313.11  2417.54  2522.04  2626.60  2731.23  2835.93
 G, KJ/KG        -55648.4 -56622.3 -57598.5 -58577.0 -59557.8 -60540.7 -61525.8 -62513.1
 S, KJ/(KG)(K)    97.2742  97.5071  97.7364  97.9623  98.1848  98.4041  98.6202  98.8333

 M, (1/n)           2.016    2.016    2.016    2.016    2.016    2.016    2.016    2.016
 (dLV/dLP)t      -1.00000 -1.00000 -1.00000 -1.00000 -1.00000 -1.00000 -1.00000 -1.00000
 (dLV/dLT)p        1.0000   1.0000   1.0000   1.0000   1.0000   1.0000   1.0000   1.0000
 Cp, KJ/(KG)(K)   14.5535  14.5590  14.5648  14.5709  14.5773  14.5840  14.5911  14.5984
 GAMMAs            1.3955   1.3953   1.3951   1.3948   1.3946   1.3943   1.3941   1.3938
 SON VEL,M/SEC     1889.1   1904.1   1919.0   1933.8   1948.4   1962.9   1977.3   1991.6

 TRANSPORT PROPERTIES (GASES ONLY)
   CONDUCTIVITY IN UNITS OF MILLIWATTS/(CM)(K)

 VISC,MILLIPOISE  0.14707  0.14871  0.15034  0.15196  0.15358  0.15520  0.15680  0.15840

  WITH EQUILIBRIUM REACTIONS

 Cp, KJ/(KG)(K)   14.5535  14.5590  14.5648  14.5709  14.5773  14.5840  14.5911  14.5984
 CONDUCTIVITY      3.1054   3.1410   3.1764   3.2119   3.2473   3.2827   3.3180   3.3533
 PRANDTL NUMBER    0.6892   0.6893   0.6893   0.6894   0.6894   0.6895   0.6896   0.6896

  WITH FROZEN REACTIONS

 Cp, KJ/(KG)(K)   14.5535  14.5590  14.5648  14.5709  14.5773  14.5840  14.5911  14.5984
 CONDUCTIVITY      3.1054   3.1410   3.1764   3.2119   3.2473   3.2827   3.3180   3.3533
 PRANDTL NUMBER    0.6892   0.6893   0.6893   0.6894   0.6894   0.6895   0.6896   0.6896

 MASS FRACTIONS

 *H2              1.00000  1.00000  1.00000  1.00000  1.00000  1.00000  1.00000  1.00000

  * THERMODYNAMIC PROPERTIES FITTED TO 20000.K

 NOTE. WEIGHT FRACTION OF FUEL IN TOTAL FUELS AND OF OXIDANT IN TOTAL OXIDANTS









               THERMODYNAMIC EQUILIBRIUM PROPERTIES AT ASSIGNED

                           TEMPERATURE AND PRESSURE

 CASE =                

             REACTANT                    WT FRACTION      ENERGY      TEMP
                                          (SEE NOTE)     KJ/KG-MOL      K  
 FUEL        H2                           1.0000000         0.000      0.000
 OXIDANT     H2                           1.0000000         0.000      0.000

 O/F=    1.00000  %FUEL= 50.000000  R,EQ.RATIO= 0.000000  PHI,EQ.RATIO=-1.000000

 THERMODYNAMIC PROPERTIES

 P, BAR           0.00625  0.00625  0.00625  0.00625  0.00625  0.00625  0.00625  0.00625
 T, K              500.00   510.00   520.00   530.00   540.00   550.00   560.00   570.00
 RHO, KG/CU M    3.0307-4 2.9712-4 2.9141-4 2.8591-4 2.8062-4 2.7552-4 2.7060-4 2.6585-4
 H, KJ/KG         2918.10  3063.23  3208.38  3353.55  3498.75  3643.98  3789.24  3934.53
 U, KJ/KG          855.85   959.73  1063.63  1167.56  1271.52  1375.50  1479.52  1583.56
 G, KJ/KG        -43696.2 -44629.9 -45566.5 -46505.9 -47448.0 -48392.8 -49340.2 -50290.2
 S, KJ/(KG)(K)    93.2286  93.5160  93.7978  94.0744  94.3458  94.6123  94.8740  95.1312

 M, (1/n)           2.016    2.016    2.016    2.016    2.016    2.016    2.016    2.016
 (dLV/dLP)t      -1.00000 -1.00000 -1.00000 -1.00000 -1.00000 -1.00000 -1.00000 -1.00000
 (dLV/dLT)p        1.0000   1.0000   1.0000   1.0000   1.0000   1.0000   1.0000   1.0000
 Cp, KJ/(KG)(K)   14.5115  14.5138  14.5161  14.5186  14.5214  14.5243  14.5276  14.5311
 GAMMAs            1.3971   1.3970   1.3969   1.3968   1.3967   1.3966   1.3965   1.3963
 SON VEL,M/SEC     1697.4   1714.2   1730.9   1747.4   1763.7   1779.9   1796.0   1811.8

 TRANSPORT PROPERTIES (GASES ONLY)
   CONDUCTIVITY IN UNITS OF MILLIWATTS/(CM)(K)

 VISC,MILLIPOISE  0.12683  0.12856  0.13028  0.13200  0.13370  0.13540  0.13709  0.13877

  WITH EQUILIBRIUM REACTIONS

 Cp, KJ/(KG)(K)   14.5115  14.5138  14.5161  14.5186  14.5214  14.5243  14.5276  14.5311
 CONDUCTIVITY      2.6732   2.7098   2.7462   2.7826   2.8188   2.8549   2.8909   2.9268
 PRANDTL NUMBER    0.6885   0.6886   0.6886   0.6887   0.6888   0.6889   0.6889   0.6890

  WITH FROZEN REACTIONS

 Cp, KJ/(KG)(K)   14.5115  14.5138  14.5161  14.5186  14.5214  14.5243  14.5276  14.5311
 CONDUCTIVITY      2.6732   2.7098   2.7462   2.7826   2.8188   2.8549   2.8909   2.9268
 PRANDTL NUMBER    0.6885   0.6886   0.6886   0.6887   0.6888   0.6889   0.6889   0.6890

 MASS FRACTIONS

 *H2              1.00000  1.00000  1.00000  1.00000  1.00000  1.00000  1.00000  1.00000

  * THERMODYNAMIC PROPERTIES FITTED TO 20000.K

 NOTE. WEIGHT FRACTION OF FUEL IN TOTAL FUELS AND OF OXIDANT IN TOTAL OXIDANTS









               THERMODYNAMIC EQUILIBRIUM PROPERTIES AT ASSIGNED

                           TEMPERATURE AND PRESSURE

 CASE =                

             REACTANT                    WT FRACTION      ENERGY      TEMP
                                          (SEE NOTE)     KJ/KG-MOL      K  
 FUEL        H2                           1.0000000         0.000      0.000
 OXIDANT     H2                           1.0000000         0.000      0.000

 O/F=    1.00000  %FUEL= 50.000000  R,EQ.RATIO= 0.000000  PHI,EQ.RATIO=-1.000000

 THERMODYNAMIC PROPERTIES

 P, BAR           0.00625  0.00625  0.00625  0.00625  0.00625  0.00625  0.00625  0.00625
 T, K              580.00   590.00   600.00   610.00   620.00   630.00   640.00   650.00
 RHO, KG/CU M    2.6126-4 2.5684-4 2.5256-4 2.4842-4 2.4441-4 2.4053-4 2.3677-4 2.3313-4
 H, KJ/KG         4079.86  4225.23  4370.65  4516.11  4661.62  4807.18  4952.80  5098.47
 U, KJ/KG         1687.65  1791.77  1895.94  2000.16  2104.42  2208.74  2313.11  2417.54
 G, KJ/KG        -51242.8 -52197.9 -53155.4 -54115.4 -55077.8 -56042.5 -57009.5 -57978.8
 S, KJ/(KG)(K)    95.3839  95.6324  95.8768  96.1173  96.3539  96.5868  96.8161  97.0419

 M, (1/n)           2.016    2.016    2.016    2.016    2.016    2.016    2.016    2.016
 (dLV/dLP)t      -1.00000 -1.00000 -1.00000 -1.00000 -1.00000 -1.00000 -1.00000 -1.00000
 (dLV/dLT)p        1.0000   1.0000   1.0000   1.0000   1.0000   1.0000   1.0000   1.0000
 Cp, KJ/(KG)(K)   14.5350  14.5391  14.5436  14.5484  14.5535  14.5590  14.5648  14.5709
 GAMMAs            1.3962   1.3960   1.3959   1.3957   1.3955   1.3953   1.3951   1.3948
 SON VEL,M/SEC     1827.6   1843.1   1858.6   1873.9   1889.1   1904.1   1919.0   1933.8

 TRANSPORT PROPERTIES (GASES ONLY)
   CONDUCTIVITY IN UNITS OF MILLIWATTS/(CM)(K)

 VISC,MILLIPOISE  0.14044  0.14211  0.14377  0.14542  0.14707  0.14871  0.15034  0.15196

  WITH EQUILIBRIUM REACTIONS

 Cp, KJ/(KG)(K)   14.5350  14.5391  14.5436  14.5484  14.5535  14.5590  14.5648  14.5709
 CONDUCTIVITY      2.9627   2.9984   3.0342   3.0698   3.1054   3.1410   3.1764   3.2119
 PRANDTL NUMBER    0.6890   0.6891   0.6891   0.6892   0.6892   0.6893   0.6893   0.6894

  WITH FROZEN REACTIONS

 Cp, KJ/(KG)(K)   14.5350  14.5391  14.5436  14.5484  14.5535  14.5590  14.5648  14.5709
 CONDUCTIVITY      2.9627   2.9984   3.0342   3.0698   3.1054   3.1410   3.1764   3.2119
 PRANDTL NUMBER    0.6890   0.6891   0.6891   0.6892   0.6892   0.6893   0.6893   0.6894

 MASS FRACTIONS

 *H2              1.00000  1.00000  1.00000  1.00000  1.00000  1.00000  1.00000  1.00000

  * THERMODYNAMIC PROPERTIES FITTED TO 20000.K

 NOTE. WEIGHT FRACTION OF FUEL IN TOTAL FUELS AND OF OXIDANT IN TOTAL OXIDANTS









               THERMODYNAMIC EQUILIBRIUM PROPERTIES AT ASSIGNED

                           TEMPERATURE AND PRESSURE

 CASE =                

             REACTANT                    WT FRACTION      ENERGY      TEMP
                                          (SEE NOTE)     KJ/KG-MOL      K  
 FUEL        H2                           1.0000000         0.000      0.000
 OXIDANT     H2                           1.0000000         0.000      0.000

 O/F=    1.00000  %FUEL= 50.000000  R,EQ.RATIO= 0.000000  PHI,EQ.RATIO=-1.000000

 THERMODYNAMIC PROPERTIES

 P, BAR           0.00625  0.00625  0.00625  0.00625  0.00800  0.00800  0.00800  0.00800
 T, K              660.00   670.00   680.00   690.00   500.00   510.00   520.00   530.00
 RHO, KG/CU M    2.2960-4 2.2617-4 2.2284-4 2.1961-4 3.8793-4 3.8032-4 3.7300-4 3.6597-4
 H, KJ/KG         5244.21  5390.02  5535.90  5681.84  2918.10  3063.23  3208.38  3353.55
 U, KJ/KG         2522.04  2626.60  2731.23  2835.93   855.85   959.73  1063.63  1167.56
 G, KJ/KG        -58950.3 -59924.1 -60900.0 -61878.1 -43187.1 -44110.7 -45037.1 -45966.2
 S, KJ/(KG)(K)    97.2645  97.4837  97.6998  97.9129  92.2104  92.4978  92.7797  93.0562

 M, (1/n)           2.016    2.016    2.016    2.016    2.016    2.016    2.016    2.016
 (dLV/dLP)t      -1.00000 -1.00000 -1.00000 -1.00000 -1.00000 -1.00000 -1.00000 -1.00000
 (dLV/dLT)p        1.0000   1.0000   1.0000   1.0000   1.0000   1.0000   1.0000   1.0000
 Cp, KJ/(KG)(K)   14.5773  14.5840  14.5911  14.5984  14.5115  14.5138  14.5161  14.5186
 GAMMAs            1.3946   1.3943   1.3941   1.3938   1.3971   1.3970   1.3969   1.3968
 SON VEL,M/SEC     1948.4   1962.9   1977.3   1991.6   1697.4   1714.2   1730.9   1747.4

 TRANSPORT PROPERTIES (GASES ONLY)
   CONDUCTIVITY IN UNITS OF MILLIWATTS/(CM)(K)

 VISC,MILLIPOISE  0.15358  0.15520  0.15680  0.15840  0.12683  0.12856  0.13028  0.13200

  WITH EQUILIBRIUM REACTIONS

 Cp, KJ/(KG)(K)   14.5773  14.5840  14.5911  14.5984  14.5115  14.5138  14.5161  14.5186
 CONDUCTIVITY      3.2473   3.2827   3.3180   3.3533   2.6732   2.7098   2.7462   2.7826
 PRANDTL NUMBER    0.6894   0.6895   0.6896   0.6896   0.6885   0.6886   0.6886   0.6887

  WITH FROZEN REACTIONS

 Cp, KJ/(KG)(K)   14.5773  14.5840  14.5911  14.5984  14.5115  14.5138  14.5161  14.5186
 CONDUCTIVITY      3.2473   3.2827   3.3180   3.3533   2.6732   2.7098   2.7462   2.7826
 PRANDTL NUMBER    0.6894   0.6895   0.6896   0.6896   0.6885   0.6886   0.6886   0.6887

 MASS FRACTIONS

 *H2              1.00000  1.00000  1.00000  1.00000  1.00000  1.00000  1.00000  1.00000

  * THERMODYNAMIC PROPERTIES FITTED TO 20000.K

 NOTE. WEIGHT FRACTION OF FUEL IN TOTAL FUELS AND OF OXIDANT IN TOTAL OXIDANTS









               THERMODYNAMIC EQUILIBRIUM PROPERTIES AT ASSIGNED

                           TEMPERATURE AND PRESSURE

 CASE =                

             REACTANT                    WT FRACTION      ENERGY      TEMP
                                          (SEE NOTE)     KJ/KG-MOL      K  
 FUEL        H2                           1.0000000         0.000      0.000
 OXIDANT     H2                           1.0000000         0.000      0.000

 O/F=    1.00000  %FUEL= 50.000000  R,EQ.RATIO= 0.000000  PHI,EQ.RATIO=-1.000000

 THERMODYNAMIC PROPERTIES

 P, BAR           0.00800  0.00800  0.00800  0.00800  0.00800  0.00800  0.00800  0.00800
 T, K              540.00   550.00   560.00   570.00   580.00   590.00   600.00   610.00
 RHO, KG/CU M    3.5919-4 3.5266-4 3.4636-4 3.4029-4 3.3442-4 3.2875-4 3.2327-4 3.1797-4
 H, KJ/KG         3498.75  3643.98  3789.24  3934.53  4079.86  4225.23  4370.65  4516.11
 U, KJ/KG         1271.52  1375.50  1479.52  1583.56  1687.65  1791.77  1895.94  2000.16
 G, KJ/KG        -46898.2 -47832.8 -48770.0 -49709.9 -50652.3 -51597.2 -52544.5 -53494.3
 S, KJ/(KG)(K)    93.3276  93.5941  93.8558  94.1130  94.3657  94.6142  94.8586  95.0991

 M, (1/n)           2.016    2.016    2.016    2.016    2.016    2.016    2.016    2.016
 (dLV/dLP)t      -1.00000 -1.00000 -1.00000 -1.00000 -1.00000 -1.00000 -1.00000 -1.00000
 (dLV/dLT)p        1.0000   1.0000   1.0000   1.0000   1.0000   1.0000   1.0000   1.0000
 Cp, KJ/(KG)(K)   14.5214  14.5243  14.5276  14.5311  14.5350  14.5391  14.5436  14.5484
 GAMMAs            1.3967   1.3966   1.3965   1.3963   1.3962   1.3960   1.3959   1.3957
 SON VEL,M/SEC     1763.7   1779.9   1796.0   1811.8   1827.6   1843.1   1858.6   1873.9

 TRANSPORT PROPERTIES (GASES ONLY)
   CONDUCTIVITY IN UNITS OF MILLIWATTS/(CM)(K)

 VISC,MILLIPOISE  0.13370  0.13540  0.13709  0.13877  0.14044  0.14211  0.14377  0.14542

  WITH EQUILIBRIUM REACTIONS

 Cp, KJ/(KG)(K)   14.5214  14.5243  14.5276  14.5311  14.5350  14.5391  14.5436  14.5484
 CONDUCTIVITY      2.8188   2.8549   2.8909   2.9268   2.9627   2.9984   3.0342   3.0698
 PRANDTL NUMBER    0.6888   0.6889   0.6889   0.6890   0.6890   0.6891   0.6891   0.6892

  WITH FROZEN REACTIONS

 Cp, KJ/(KG)(K)   14.5214  14.5243  14.5276  14.5311  14.5350  14.5391  14.5436  14.5484
 CONDUCTIVITY      2.8188   2.8549   2.8909   2.9268   2.9627   2.9984   3.0342   3.0698
 PRANDTL NUMBER    0.6888   0.6889   0.6889   0.6890   0.6890   0.6891   0.6891   0.6892

 MASS FRACTIONS

 *H2              1.00000  1.00000  1.00000  1.00000  1.00000  1.00000  1.00000  1.00000

  * THERMODYNAMIC PROPERTIES FITTED TO 20000.K

 NOTE. WEIGHT FRACTION OF FUEL IN TOTAL FUELS AND OF OXIDANT IN TOTAL OXIDANTS









               THERMODYNAMIC EQUILIBRIUM PROPERTIES AT ASSIGNED

                           TEMPERATURE AND PRESSURE

 CASE =                

             REACTANT                    WT FRACTION      ENERGY      TEMP
                                          (SEE NOTE)     KJ/KG-MOL      K  
 FUEL        H2                           1.0000000         0.000      0.000
 OXIDANT     H2                           1.0000000         0.000      0.000

 O/F=    1.00000  %FUEL= 50.000000  R,EQ.RATIO= 0.000000  PHI,EQ.RATIO=-1.000000

 THERMODYNAMIC PROPERTIES

 P, BAR           0.00800  0.00800  0.00800  0.00800  0.00800  0.00800  0.00800  0.00800
 T, K              620.00   630.00   640.00   650.00   660.00   670.00   680.00   690.00
 RHO, KG/CU M    3.1284-4 3.0788-4 3.0307-4 2.9840-4 2.9388-4 2.8950-4 2.8524-4 2.8111-4
 H, KJ/KG         4661.62  4807.18  4952.80  5098.47  5244.21  5390.02  5535.90  5681.84
 U, KJ/KG         2104.42  2208.74  2313.11  2417.54  2522.04  2626.60  2731.23  2835.93
 G, KJ/KG        -54446.5 -55401.0 -56357.9 -57317.0 -58278.3 -59241.9 -60207.6 -61175.5
 S, KJ/(KG)(K)    95.3357  95.5686  95.7979  96.0238  96.2463  96.4655  96.6817  96.8947

 M, (1/n)           2.016    2.016    2.016    2.016    2.016    2.016    2.016    2.016
 (dLV/dLP)t      -1.00000 -1.00000 -1.00000 -1.00000 -1.00000 -1.00000 -1.00000 -1.00000
 (dLV/dLT)p        1.0000   1.0000   1.0000   1.0000   1.0000   1.0000   1.0000   1.0000
 Cp, KJ/(KG)(K)   14.5535  14.5590  14.5648  14.5709  14.5773  14.5840  14.5911  14.5984
 GAMMAs            1.3955   1.3953   1.3951   1.3948   1.3946   1.3943   1.3941   1.3938
 SON VEL,M/SEC     1889.1   1904.1   1919.0   1933.8   1948.4   1962.9   1977.3   1991.6

 TRANSPORT PROPERTIES (GASES ONLY)
   CONDUCTIVITY IN UNITS OF MILLIWATTS/(CM)(K)

 VISC,MILLIPOISE  0.14707  0.14871  0.15034  0.15196  0.15358  0.15520  0.15680  0.15840

  WITH EQUILIBRIUM REACTIONS

 Cp, KJ/(KG)(K)   14.5535  14.5590  14.5648  14.5709  14.5773  14.5840  14.5911  14.5984
 CONDUCTIVITY      3.1054   3.1410   3.1764   3.2119   3.2473   3.2827   3.3180   3.3533
 PRANDTL NUMBER    0.6892   0.6893   0.6893   0.6894   0.6894   0.6895   0.6896   0.6896

  WITH FROZEN REACTIONS

 Cp, KJ/(KG)(K)   14.5535  14.5590  14.5648  14.5709  14.5773  14.5840  14.5911  14.5984
 CONDUCTIVITY      3.1054   3.1410   3.1764   3.2119   3.2473   3.2827   3.3180   3.3533
 PRANDTL NUMBER    0.6892   0.6893   0.6893   0.6894   0.6894   0.6895   0.6896   0.6896

 MASS FRACTIONS

 *H2              1.00000  1.00000  1.00000  1.00000  1.00000  1.00000  1.00000  1.00000

  * THERMODYNAMIC PROPERTIES FITTED TO 20000.K

 NOTE. WEIGHT FRACTION OF FUEL IN TOTAL FUELS AND OF OXIDANT IN TOTAL OXIDANTS









               THERMODYNAMIC EQUILIBRIUM PROPERTIES AT ASSIGNED

                           TEMPERATURE AND PRESSURE

 CASE =                

             REACTANT                    WT FRACTION      ENERGY      TEMP
                                          (SEE NOTE)     KJ/KG-MOL      K  
 FUEL        H2                           1.0000000         0.000      0.000
 OXIDANT     H2                           1.0000000         0.000      0.000

 O/F=    1.00000  %FUEL= 50.000000  R,EQ.RATIO= 0.000000  PHI,EQ.RATIO=-1.000000

 THERMODYNAMIC PROPERTIES

 P, BAR           0.01000  0.01000  0.01000  0.01000  0.01000  0.01000  0.01000  0.01000
 T, K              500.00   510.00   520.00   530.00   540.00   550.00   560.00   570.00
 RHO, KG/CU M    4.8491-4 4.7540-4 4.6626-4 4.5746-4 4.4899-4 4.4082-4 4.3295-4 4.2536-4
 H, KJ/KG         2918.10  3063.23  3208.38  3353.55  3498.75  3643.98  3789.24  3934.53
 U, KJ/KG          855.85   959.73  1063.63  1167.56  1271.52  1375.50  1479.52  1583.56
 G, KJ/KG        -42726.9 -43641.3 -44558.5 -45478.4 -46401.2 -47326.6 -48254.6 -49185.3
 S, KJ/(KG)(K)    91.2901  91.5775  91.8593  92.1358  92.4073  92.6737  92.9355  93.1926

 M, (1/n)           2.016    2.016    2.016    2.016    2.016    2.016    2.016    2.016
 (dLV/dLP)t      -1.00000 -1.00000 -1.00000 -1.00000 -1.00000 -1.00000 -1.00000 -1.00000
 (dLV/dLT)p        1.0000   1.0000   1.0000   1.0000   1.0000   1.0000   1.0000   1.0000
 Cp, KJ/(KG)(K)   14.5115  14.5138  14.5161  14.5186  14.5214  14.5243  14.5276  14.5311
 GAMMAs            1.3971   1.3970   1.3969   1.3968   1.3967   1.3966   1.3965   1.3963
 SON VEL,M/SEC     1697.4   1714.2   1730.9   1747.4   1763.7   1779.9   1796.0   1811.8

 TRANSPORT PROPERTIES (GASES ONLY)
   CONDUCTIVITY IN UNITS OF MILLIWATTS/(CM)(K)

 VISC,MILLIPOISE  0.12683  0.12856  0.13028  0.13200  0.13370  0.13540  0.13709  0.13877

  WITH EQUILIBRIUM REACTIONS

 Cp, KJ/(KG)(K)   14.5115  14.5138  14.5161  14.5186  14.5214  14.5243  14.5276  14.5311
 CONDUCTIVITY      2.6732   2.7098   2.7462   2.7826   2.8188   2.8549   2.8909   2.9268
 PRANDTL NUMBER    0.6885   0.6886   0.6886   0.6887   0.6888   0.6889   0.6889   0.6890

  WITH FROZEN REACTIONS

 Cp, KJ/(KG)(K)   14.5115  14.5138  14.5161  14.5186  14.5214  14.5243  14.5276  14.5311
 CONDUCTIVITY      2.6732   2.7098   2.7462   2.7826   2.8188   2.8549   2.8909   2.9268
 PRANDTL NUMBER    0.6885   0.6886   0.6886   0.6887   0.6888   0.6889   0.6889   0.6890

 MASS FRACTIONS

 *H2              1.00000  1.00000  1.00000  1.00000  1.00000  1.00000  1.00000  1.00000

  * THERMODYNAMIC PROPERTIES FITTED TO 20000.K

 NOTE. WEIGHT FRACTION OF FUEL IN TOTAL FUELS AND OF OXIDANT IN TOTAL OXIDANTS









               THERMODYNAMIC EQUILIBRIUM PROPERTIES AT ASSIGNED

                           TEMPERATURE AND PRESSURE

 CASE =                

             REACTANT                    WT FRACTION      ENERGY      TEMP
                                          (SEE NOTE)     KJ/KG-MOL      K  
 FUEL        H2                           1.0000000         0.000      0.000
 OXIDANT     H2                           1.0000000         0.000      0.000

 O/F=    1.00000  %FUEL= 50.000000  R,EQ.RATIO= 0.000000  PHI,EQ.RATIO=-1.000000

 THERMODYNAMIC PROPERTIES

 P, BAR           0.01000  0.01000  0.01000  0.01000  0.01000  0.01000  0.01000  0.01000
 T, K              580.00   590.00   600.00   610.00   620.00   630.00   640.00   650.00
 RHO, KG/CU M    4.1802-4 4.1094-4 4.0409-4 3.9746-4 3.9105-4 3.8485-4 3.7883-4 3.7300-4
 H, KJ/KG         4079.86  4225.23  4370.65  4516.11  4661.62  4807.18  4952.80  5098.47
 U, KJ/KG         1687.65  1791.77  1895.94  2000.16  2104.42  2208.74  2313.11  2417.54
 G, KJ/KG        -50118.5 -51054.2 -51992.3 -52932.9 -53875.9 -54821.2 -55768.8 -56718.7
 S, KJ/(KG)(K)    93.4454  93.6939  93.9383  94.1787  94.4153  94.6482  94.8776  95.1034

 M, (1/n)           2.016    2.016    2.016    2.016    2.016    2.016    2.016    2.016
 (dLV/dLP)t      -1.00000 -1.00000 -1.00000 -1.00000 -1.00000 -1.00000 -1.00000 -1.00000
 (dLV/dLT)p        1.0000   1.0000   1.0000   1.0000   1.0000   1.0000   1.0000   1.0000
 Cp, KJ/(KG)(K)   14.5350  14.5391  14.5436  14.5484  14.5535  14.5590  14.5648  14.5709
 GAMMAs            1.3962   1.3960   1.3959   1.3957   1.3955   1.3953   1.3951   1.3948
 SON VEL,M/SEC     1827.6   1843.1   1858.6   1873.9   1889.1   1904.1   1919.0   1933.8

 TRANSPORT PROPERTIES (GASES ONLY)
   CONDUCTIVITY IN UNITS OF MILLIWATTS/(CM)(K)

 VISC,MILLIPOISE  0.14044  0.14211  0.14377  0.14542  0.14707  0.14871  0.15034  0.15196

  WITH EQUILIBRIUM REACTIONS

 Cp, KJ/(KG)(K)   14.5350  14.5391  14.5436  14.5484  14.5535  14.5590  14.5648  14.5709
 CONDUCTIVITY      2.9627   2.9984   3.0342   3.0698   3.1054   3.1410   3.1764   3.2119
 PRANDTL NUMBER    0.6890   0.6891   0.6891   0.6892   0.6892   0.6893   0.6893   0.6894

  WITH FROZEN REACTIONS

 Cp, KJ/(KG)(K)   14.5350  14.5391  14.5436  14.5484  14.5535  14.5590  14.5648  14.5709
 CONDUCTIVITY      2.9627   2.9984   3.0342   3.0698   3.1054   3.1410   3.1764   3.2119
 PRANDTL NUMBER    0.6890   0.6891   0.6891   0.6892   0.6892   0.6893   0.6893   0.6894

 MASS FRACTIONS

 *H2              1.00000  1.00000  1.00000  1.00000  1.00000  1.00000  1.00000  1.00000

  * THERMODYNAMIC PROPERTIES FITTED TO 20000.K

 NOTE. WEIGHT FRACTION OF FUEL IN TOTAL FUELS AND OF OXIDANT IN TOTAL OXIDANTS









               THERMODYNAMIC EQUILIBRIUM PROPERTIES AT ASSIGNED

                           TEMPERATURE AND PRESSURE

 CASE =                

             REACTANT                    WT FRACTION      ENERGY      TEMP
                                          (SEE NOTE)     KJ/KG-MOL      K  
 FUEL        H2                           1.0000000         0.000      0.000
 OXIDANT     H2                           1.0000000         0.000      0.000

 O/F=    1.00000  %FUEL= 50.000000  R,EQ.RATIO= 0.000000  PHI,EQ.RATIO=-1.000000

 THERMODYNAMIC PROPERTIES

 P, BAR           0.01000  0.01000  0.01000  0.01000  0.01250  0.01250  0.01250  0.01250
 T, K              660.00   670.00   680.00   690.00   500.00   510.00   520.00   530.00
 RHO, KG/CU M    3.6735-4 3.6187-4 3.5655-4 3.5138-4 6.0613-4 5.9425-4 5.8282-4 5.7182-4
 H, KJ/KG         5244.21  5390.02  5535.90  5681.84  2918.10  3063.23  3208.38  3353.55
 U, KJ/KG         2522.04  2626.60  2731.23  2835.93   855.85   959.73  1063.63  1167.56
 G, KJ/KG        -57670.9 -58625.3 -59581.8 -60540.5 -42266.8 -43171.9 -44079.9 -44990.7
 S, KJ/(KG)(K)    95.3259  95.5452  95.7613  95.9744  90.3697  90.6571  90.9390  91.2155

 M, (1/n)           2.016    2.016    2.016    2.016    2.016    2.016    2.016    2.016
 (dLV/dLP)t      -1.00000 -1.00000 -1.00000 -1.00000 -1.00000 -1.00000 -1.00000 -1.00000
 (dLV/dLT)p        1.0000   1.0000   1.0000   1.0000   1.0000   1.0000   1.0000   1.0000
 Cp, KJ/(KG)(K)   14.5773  14.5840  14.5911  14.5984  14.5115  14.5138  14.5161  14.5186
 GAMMAs            1.3946   1.3943   1.3941   1.3938   1.3971   1.3970   1.3969   1.3968
 SON VEL,M/SEC     1948.4   1962.9   1977.3   1991.6   1697.4   1714.2   1730.9   1747.4

 TRANSPORT PROPERTIES (GASES ONLY)
   CONDUCTIVITY IN UNITS OF MILLIWATTS/(CM)(K)

 VISC,MILLIPOISE  0.15358  0.15520  0.15680  0.15840  0.12683  0.12856  0.13028  0.13200

  WITH EQUILIBRIUM REACTIONS

 Cp, KJ/(KG)(K)   14.5773  14.5840  14.5911  14.5984  14.5115  14.5138  14.5161  14.5186
 CONDUCTIVITY      3.2473   3.2827   3.3180   3.3533   2.6732   2.7098   2.7462   2.7826
 PRANDTL NUMBER    0.6894   0.6895   0.6896   0.6896   0.6885   0.6886   0.6886   0.6887

  WITH FROZEN REACTIONS

 Cp, KJ/(KG)(K)   14.5773  14.5840  14.5911  14.5984  14.5115  14.5138  14.5161  14.5186
 CONDUCTIVITY      3.2473   3.2827   3.3180   3.3533   2.6732   2.7098   2.7462   2.7826
 PRANDTL NUMBER    0.6894   0.6895   0.6896   0.6896   0.6885   0.6886   0.6886   0.6887

 MASS FRACTIONS

 *H2              1.00000  1.00000  1.00000  1.00000  1.00000  1.00000  1.00000  1.00000

  * THERMODYNAMIC PROPERTIES FITTED TO 20000.K

 NOTE. WEIGHT FRACTION OF FUEL IN TOTAL FUELS AND OF OXIDANT IN TOTAL OXIDANTS









               THERMODYNAMIC EQUILIBRIUM PROPERTIES AT ASSIGNED

                           TEMPERATURE AND PRESSURE

 CASE =                

             REACTANT                    WT FRACTION      ENERGY      TEMP
                                          (SEE NOTE)     KJ/KG-MOL      K  
 FUEL        H2                           1.0000000         0.000      0.000
 OXIDANT     H2                           1.0000000         0.000      0.000

 O/F=    1.00000  %FUEL= 50.000000  R,EQ.RATIO= 0.000000  PHI,EQ.RATIO=-1.000000

 THERMODYNAMIC PROPERTIES

 P, BAR           0.01250  0.01250  0.01250  0.01250  0.01250  0.01250  0.01250  0.01250
 T, K              540.00   550.00   560.00   570.00   580.00   590.00   600.00   610.00
 RHO, KG/CU M    5.6123-4 5.5103-4 5.4119-4 5.3170-4 5.2253-4 5.1367-4 5.0511-4 4.9683-4
 H, KJ/KG         3498.75  3643.98  3789.24  3934.53  4079.86  4225.23  4370.65  4516.11
 U, KJ/KG         1271.52  1375.50  1479.52  1583.56  1687.65  1791.77  1895.94  2000.16
 G, KJ/KG        -45904.2 -46820.4 -47739.2 -48660.7 -49584.7 -50511.2 -51440.1 -52371.5
 S, KJ/(KG)(K)    91.4869  91.7534  92.0151  92.2723  92.5250  92.7735  93.0179  93.2584

 M, (1/n)           2.016    2.016    2.016    2.016    2.016    2.016    2.016    2.016
 (dLV/dLP)t      -1.00000 -1.00000 -1.00000 -1.00000 -1.00000 -1.00000 -1.00000 -1.00000
 (dLV/dLT)p        1.0000   1.0000   1.0000   1.0000   1.0000   1.0000   1.0000   1.0000
 Cp, KJ/(KG)(K)   14.5214  14.5243  14.5276  14.5311  14.5350  14.5391  14.5436  14.5484
 GAMMAs            1.3967   1.3966   1.3965   1.3963   1.3962   1.3960   1.3959   1.3957
 SON VEL,M/SEC     1763.7   1779.9   1796.0   1811.8   1827.6   1843.1   1858.6   1873.9

 TRANSPORT PROPERTIES (GASES ONLY)
   CONDUCTIVITY IN UNITS OF MILLIWATTS/(CM)(K)

 VISC,MILLIPOISE  0.13370  0.13540  0.13709  0.13877  0.14044  0.14211  0.14377  0.14542

  WITH EQUILIBRIUM REACTIONS

 Cp, KJ/(KG)(K)   14.5214  14.5243  14.5276  14.5311  14.5350  14.5391  14.5436  14.5484
 CONDUCTIVITY      2.8188   2.8549   2.8909   2.9268   2.9627   2.9984   3.0342   3.0698
 PRANDTL NUMBER    0.6888   0.6889   0.6889   0.6890   0.6890   0.6891   0.6891   0.6892

  WITH FROZEN REACTIONS

 Cp, KJ/(KG)(K)   14.5214  14.5243  14.5276  14.5311  14.5350  14.5391  14.5436  14.5484
 CONDUCTIVITY      2.8188   2.8549   2.8909   2.9268   2.9627   2.9984   3.0342   3.0698
 PRANDTL NUMBER    0.6888   0.6889   0.6889   0.6890   0.6890   0.6891   0.6891   0.6892

 MASS FRACTIONS

 *H2              1.00000  1.00000  1.00000  1.00000  1.00000  1.00000  1.00000  1.00000

  * THERMODYNAMIC PROPERTIES FITTED TO 20000.K

 NOTE. WEIGHT FRACTION OF FUEL IN TOTAL FUELS AND OF OXIDANT IN TOTAL OXIDANTS









               THERMODYNAMIC EQUILIBRIUM PROPERTIES AT ASSIGNED

                           TEMPERATURE AND PRESSURE

 CASE =                

             REACTANT                    WT FRACTION      ENERGY      TEMP
[...]

 VISC,MILLIPOISE  0.15358  0.15520  0.15680  0.15840  0.12683  0.12856  0.13028  0.13200

  WITH EQUILIBRIUM REACTIONS

 Cp, KJ/(KG)(K)   14.5773  14.5840  14.5911  14.5984  14.5115  14.5138  14.5161  14.5186
 CONDUCTIVITY      3.2473   3.2827   3.3180   3.3533   2.6732   2.7098   2.7462   2.7826
 PRANDTL NUMBER    0.6894   0.6895   0.6896   0.6896   0.6885   0.6886   0.6886   0.6887

  WITH FROZEN REACTIONS

 Cp, KJ/(KG)(K)   14.5773  14.5840  14.5911  14.5984  14.5115  14.5138  14.5161  14.5186
 CONDUCTIVITY      3.2473   3.2827   3.3180   3.3533   2.6732   2.7098   2.7462   2.7826
 PRANDTL NUMBER    0.6894   0.6895   0.6896   0.6896   0.6885   0.6886   0.6886   0.6887

 MASS FRACTIONS

 *H2              1.00000  1.00000  1.00000  1.00000  1.00000  1.00000  1.00000  1.00000

  * THERMODYNAMIC PROPERTIES FITTED TO 20000.K

 NOTE. WEIGHT FRACTION OF FUEL IN TOTAL FUELS AND OF OXIDANT IN TOTAL OXIDANTS









               THERMODYNAMIC EQUILIBRIUM PROPERTIES AT ASSIGNED

                           TEMPERATURE AND PRESSURE

 CASE =                

             REACTANT                    WT FRACTION      ENERGY      TEMP
                                          (SEE NOTE)     KJ/KG-MOL      K  
 FUEL        H2                           1.0000000         0.000      0.000
 OXIDANT     H2                           1.0000000         0.000      0.000

 O/F=    1.00000  %FUEL= 50.000000  R,EQ.RATIO= 0.000000  PHI,EQ.RATIO=-1.000000

 THERMODYNAMIC PROPERTIES

 P, BAR           0.05000  0.05000  0.05000  0.05000  0.05000  0.05000  0.05000  0.05000
 T, K              540.00   550.00   560.00   570.00   580.00   590.00   600.00   610.00
 RHO, KG/CU M    2.2449-3 2.2041-3 2.1648-3 2.1268-3 2.0901-3 2.0547-3 2.0204-3 1.9873-3
 H, KJ/KG         3498.75  3643.98  3789.24  3934.53  4079.86  4225.23  4370.65  4516.11
 U, KJ/KG         1271.52  1375.50  1479.52  1583.56  1687.65  1791.77  1895.94  2000.16
 G, KJ/KG        -42816.6 -43675.6 -44537.3 -45401.5 -46268.3 -47137.7 -48009.4 -48883.6
 S, KJ/(KG)(K)    85.7691  86.0356  86.2973  86.5545  86.8072  87.0558  87.3001  87.5406

 M, (1/n)           2.016    2.016    2.016    2.016    2.016    2.016    2.016    2.016
 (dLV/dLP)t      -1.00000 -1.00000 -1.00000 -1.00000 -1.00000 -1.00000 -1.00000 -1.00000
 (dLV/dLT)p        1.0000   1.0000   1.0000   1.0000   1.0000   1.0000   1.0000   1.0000
 Cp, KJ/(KG)(K)   14.5214  14.5243  14.5276  14.5311  14.5350  14.5391  14.5436  14.5484
 GAMMAs            1.3967   1.3966   1.3965   1.3963   1.3962   1.3960   1.3959   1.3957
 SON VEL,M/SEC     1763.7   1779.9   1796.0   1811.8   1827.6   1843.1   1858.6   1873.9

 TRANSPORT PROPERTIES (GASES ONLY)
   CONDUCTIVITY IN UNITS OF MILLIWATTS/(CM)(K)

 VISC,MILLIPOISE  0.13370  0.13540  0.13709  0.13877  0.14044  0.14211  0.14377  0.14542

  WITH EQUILIBRIUM REACTIONS

 Cp, KJ/(KG)(K)   14.5214  14.5243  14.5276  14.5311  14.5350  14.5391  14.5436  14.5484
 CONDUCTIVITY      2.8188   2.8549   2.8909   2.9268   2.9627   2.9984   3.0342   3.0698
 PRANDTL NUMBER    0.6888   0.6889   0.6889   0.6890   0.6890   0.6891   0.6891   0.6892

  WITH FROZEN REACTIONS

 Cp, KJ/(KG)(K)   14.5214  14.5243  14.5276  14.5311  14.5350  14.5391  14.5436  14.5484
 CONDUCTIVITY      2.8188   2.8549   2.8909   2.9268   2.9627   2.9984   3.0342   3.0698
 PRANDTL NUMBER    0.6888   0.6889   0.6889   0.6890   0.6890   0.6891   0.6891   0.6892

 MASS FRACTIONS

 *H2              1.00000  1.00000  1.00000  1.00000  1.00000  1.00000  1.00000  1.00000

  * THERMODYNAMIC PROPERTIES FITTED TO 20000.K

 NOTE. WEIGHT FRACTION OF FUEL IN TOTAL FUELS AND OF OXIDANT IN TOTAL OXIDANTS









               THERMODYNAMIC EQUILIBRIUM PROPERTIES AT ASSIGNED

                           TEMPERATURE AND PRESSURE

 CASE =                

             REACTANT                    WT FRACTION      ENERGY      TEMP
                                          (SEE NOTE)     KJ/KG-MOL      K  
 FUEL        H2                           1.0000000         0.000      0.000
 OXIDANT     H2                           1.0000000         0.000      0.000

 O/F=    1.00000  %FUEL= 50.000000  R,EQ.RATIO= 0.000000  PHI,EQ.RATIO=-1.000000

 THERMODYNAMIC PROPERTIES

 P, BAR           0.05000  0.05000  0.05000  0.05000  0.05000  0.05000  0.05000  0.05000
 T, K              620.00   630.00   640.00   650.00   660.00   670.00   680.00   690.00
 RHO, KG/CU M    1.9553-3 1.9242-3 1.8942-3 1.8650-3 1.8368-3 1.8094-3 1.7827-3 1.7569-3
 H, KJ/KG         4661.62  4807.18  4952.80  5098.47  5244.21  5390.02  5535.90  5681.84
 U, KJ/KG         2104.42  2208.74  2313.11  2417.54  2522.04  2626.60  2731.23  2835.93
 G, KJ/KG        -49760.2 -50639.2 -51520.4 -52404.0 -53289.7 -54177.7 -55067.9 -55960.2
 S, KJ/(KG)(K)    87.7772  88.0101  88.2394  88.4653  88.6878  88.9071  89.1232  89.3362

 M, (1/n)           2.016    2.016    2.016    2.016    2.016    2.016    2.016    2.016
 (dLV/dLP)t      -1.00000 -1.00000 -1.00000 -1.00000 -1.00000 -1.00000 -1.00000 -1.00000
 (dLV/dLT)p        1.0000   1.0000   1.0000   1.0000   1.0000   1.0000   1.0000   1.0000
 Cp, KJ/(KG)(K)   14.5535  14.5590  14.5648  14.5709  14.5773  14.5840  14.5911  14.5984
 GAMMAs            1.3955   1.3953   1.3951   1.3948   1.3946   1.3943   1.3941   1.3938
 SON VEL,M/SEC     1889.1   1904.1   1919.0   1933.8   1948.4   1962.9   1977.3   1991.6

 TRANSPORT PROPERTIES (GASES ONLY)
   CONDUCTIVITY IN UNITS OF MILLIWATTS/(CM)(K)

 VISC,MILLIPOISE  0.14707  0.14871  0.15034  0.15196  0.15358  0.15520  0.15680  0.15840

  WITH EQUILIBRIUM REACTIONS

 Cp, KJ/(KG)(K)   14.5535  14.5590  14.5648  14.5709  14.5773  14.5840  14.5911  14.5984
 CONDUCTIVITY      3.1054   3.1410   3.1764   3.2119   3.2473   3.2827   3.3180   3.3533
 PRANDTL NUMBER    0.6892   0.6893   0.6893   0.6894   0.6894   0.6895   0.6896   0.6896

  WITH FROZEN REACTIONS

 Cp, KJ/(KG)(K)   14.5535  14.5590  14.5648  14.5709  14.5773  14.5840  14.5911  14.5984
 CONDUCTIVITY      3.1054   3.1410   3.1764   3.2119   3.2473   3.2827   3.3180   3.3533
 PRANDTL NUMBER    0.6892   0.6893   0.6893   0.6894   0.6894   0.6895   0.6896   0.6896

 MASS FRACTIONS

 *H2              1.00000  1.00000  1.00000  1.00000  1.00000  1.00000  1.00000  1.00000

  * THERMODYNAMIC PROPERTIES FITTED TO 20000.K

 NOTE. WEIGHT FRACTION OF FUEL IN TOTAL FUELS AND OF OXIDANT IN TOTAL OXIDANTS









               THERMODYNAMIC EQUILIBRIUM PROPERTIES AT ASSIGNED

                           TEMPERATURE AND PRESSURE

 CASE =                

             REACTANT                    WT FRACTION      ENERGY      TEMP
                                          (SEE NOTE)     KJ/KG-MOL      K  
 FUEL        H2                           1.0000000         0.000      0.000
 OXIDANT     H2                           1.0000000         0.000      0.000

 O/F=    1.00000  %FUEL= 50.000000  R,EQ.RATIO= 0.000000  PHI,EQ.RATIO=-1.000000

 THERMODYNAMIC PROPERTIES

 P, BAR           0.06250  0.06250  0.06250  0.06250  0.06250  0.06250  0.06250  0.06250
 T, K              500.00   510.00   520.00   530.00   540.00   550.00   560.00   570.00
 RHO, KG/CU M    3.0307-3 2.9712-3 2.9141-3 2.8591-3 2.8062-3 2.7552-3 2.7060-3 2.6585-3
 H, KJ/KG         2918.10  3063.23  3208.38  3353.55  3498.75  3643.98  3789.24  3934.53
 U, KJ/KG          855.85   959.73  1063.63  1167.56  1271.52  1375.50  1479.52  1583.56
 G, KJ/KG        -38947.7 -39786.4 -40628.0 -41472.4 -42319.6 -43169.4 -44021.9 -44876.9
 S, KJ/(KG)(K)    83.7316  84.0190  84.3008  84.5773  84.8488  85.1152  85.3770  85.6341

 M, (1/n)           2.016    2.016    2.016    2.016    2.016    2.016    2.016    2.016
 (dLV/dLP)t      -1.00000 -1.00000 -1.00000 -1.00000 -1.00000 -1.00000 -1.00000 -1.00000
 (dLV/dLT)p        1.0000   1.0000   1.0000   1.0000   1.0000   1.0000   1.0000   1.0000
 Cp, KJ/(KG)(K)   14.5115  14.5138  14.5161  14.5186  14.5214  14.5243  14.5276  14.5311
 GAMMAs            1.3971   1.3970   1.3969   1.3968   1.3967   1.3966   1.3965   1.3963
 SON VEL,M/SEC     1697.4   1714.2   1730.9   1747.4   1763.7   1779.9   1796.0   1811.8

 TRANSPORT PROPERTIES (GASES ONLY)
   CONDUCTIVITY IN UNITS OF MILLIWATTS/(CM)(K)

 VISC,MILLIPOISE  0.12683  0.12856  0.13028  0.13200  0.13370  0.13540  0.13709  0.13877

  WITH EQUILIBRIUM REACTIONS

 Cp, KJ/(KG)(K)   14.5115  14.5138  14.5161  14.5186  14.5214  14.5243  14.5276  14.5311
 CONDUCTIVITY      2.6732   2.7098   2.7462   2.7826   2.8188   2.8549   2.8909   2.9268
 PRANDTL NUMBER    0.6885   0.6886   0.6886   0.6887   0.6888   0.6889   0.6889   0.6890

  WITH FROZEN REACTIONS

 Cp, KJ/(KG)(K)   14.5115  14.5138  14.5161  14.5186  14.5214  14.5243  14.5276  14.5311
 CONDUCTIVITY      2.6732   2.7098   2.7462   2.7826   2.8188   2.8549   2.8909   2.9268
 PRANDTL NUMBER    0.6885   0.6886   0.6886   0.6887   0.6888   0.6889   0.6889   0.6890

 MASS FRACTIONS

 *H2              1.00000  1.00000  1.00000  1.00000  1.00000  1.00000  1.00000  1.00000

  * THERMODYNAMIC PROPERTIES FITTED TO 20000.K

 NOTE. WEIGHT FRACTION OF FUEL IN TOTAL FUELS AND OF OXIDANT IN TOTAL OXIDANTS









               THERMODYNAMIC EQUILIBRIUM PROPERTIES AT ASSIGNED

                           TEMPERATURE AND PRESSURE

 CASE =                

             REACTANT                    WT FRACTION      ENERGY      TEMP
                                          (SEE NOTE)     KJ/KG-MOL      K  
 FUEL        H2                           1.0000000         0.000      0.000
 OXIDANT     H2                           1.0000000         0.000      0.000

 O/F=    1.00000  %FUEL= 50.000000  R,EQ.RATIO= 0.000000  PHI,EQ.RATIO=-1.000000

 THERMODYNAMIC PROPERTIES

 P, BAR           0.06250  0.06250  0.06250  0.06250  0.06250  0.06250  0.06250  0.06250
 T, K              580.00   590.00   600.00   610.00   620.00   630.00   640.00   650.00
 RHO, KG/CU M    2.6126-3 2.5684-3 2.5256-3 2.4842-3 2.4441-3 2.4053-3 2.3677-3 2.3313-3
 H, KJ/KG         4079.86  4225.23  4370.65  4516.11  4661.62  4807.18  4952.80  5098.47
 U, KJ/KG         1687.65  1791.77  1895.94  2000.16  2104.42  2208.74  2313.11  2417.54
 G, KJ/KG        -45734.5 -46594.6 -47457.2 -48322.2 -49189.6 -50059.4 -50931.4 -51805.7
 S, KJ/(KG)(K)    85.8869  86.1354  86.3798  86.6202  86.8568  87.0897  87.3191  87.5449

 M, (1/n)           2.016    2.016    2.016    2.016    2.016    2.016    2.016    2.016
 (dLV/dLP)t      -1.00000 -1.00000 -1.00000 -1.00000 -1.00000 -1.00000 -1.00000 -1.00000
 (dLV/dLT)p        1.0000   1.0000   1.0000   1.0000   1.0000   1.0000   1.0000   1.0000
 Cp, KJ/(KG)(K)   14.5350  14.5391  14.5436  14.5484  14.5535  14.5590  14.5648  14.5709
 GAMMAs            1.3962   1.3960   1.3959   1.3957   1.3955   1.3953   1.3951   1.3948
 SON VEL,M/SEC     1827.6   1843.1   1858.6   1873.9   1889.1   1904.1   1919.0   1933.8

 TRANSPORT PROPERTIES (GASES ONLY)
   CONDUCTIVITY IN UNITS OF MILLIWATTS/(CM)(K)

 VISC,MILLIPOISE  0.14044  0.14211  0.14377  0.14542  0.14707  0.14871  0.15034  0.15196

  WITH EQUILIBRIUM REACTIONS

 Cp, KJ/(KG)(K)   14.5350  14.5391  14.5436  14.5484  14.5535  14.5590  14.5648  14.5709
 CONDUCTIVITY      2.9627   2.9984   3.0342   3.0698   3.1054   3.1410   3.1764   3.2119
 PRANDTL NUMBER    0.6890   0.6891   0.6891   0.6892   0.6892   0.6893   0.6893   0.6894

  WITH FROZEN REACTIONS

 Cp, KJ/(KG)(K)   14.5350  14.5391  14.5436  14.5484  14.5535  14.5590  14.5648  14.5709
 CONDUCTIVITY      2.9627   2.9984   3.0342   3.0698   3.1054   3.1410   3.1764   3.2119
 PRANDTL NUMBER    0.6890   0.6891   0.6891   0.6892   0.6892   0.6893   0.6893   0.6894

 MASS FRACTIONS

 *H2              1.00000  1.00000  1.00000  1.00000  1.00000  1.00000  1.00000  1.00000

  * THERMODYNAMIC PROPERTIES FITTED TO 20000.K

 NOTE. WEIGHT FRACTION OF FUEL IN TOTAL FUELS AND OF OXIDANT IN TOTAL OXIDANTS









               THERMODYNAMIC EQUILIBRIUM PROPERTIES AT ASSIGNED

                           TEMPERATURE AND PRESSURE

 CASE =                

             REACTANT                    WT FRACTION      ENERGY      TEMP
                                          (SEE NOTE)     KJ/KG-MOL      K  
 FUEL        H2                           1.0000000         0.000      0.000
 OXIDANT     H2                           1.0000000         0.000      0.000

 O/F=    1.00000  %FUEL= 50.000000  R,EQ.RATIO= 0.000000  PHI,EQ.RATIO=-1.000000

 THERMODYNAMIC PROPERTIES

 P, BAR           0.06250  0.06250  0.06250  0.06250  0.08000  0.08000  0.08000  0.08000
 T, K              660.00   670.00   680.00   690.00   500.00   510.00   520.00   530.00
 RHO, KG/CU M    2.2960-3 2.2617-3 2.2284-3 2.1961-3 3.8793-3 3.8032-3 3.7300-3 3.6597-3
 H, KJ/KG         5244.21  5390.02  5535.90  5681.84  2918.10  3063.23  3208.38  3353.55
 U, KJ/KG         2522.04  2626.60  2731.23  2835.93   855.85   959.73  1063.63  1167.56
 G, KJ/KG        -52682.3 -53561.1 -54442.0 -55325.1 -38438.6 -39267.2 -40098.6 -40932.8
 S, KJ/(KG)(K)    87.7674  87.9867  88.2028  88.4159  82.7134  83.0008  83.2826  83.5592

 M, (1/n)           2.016    2.016    2.016    2.016    2.016    2.016    2.016    2.016
 (dLV/dLP)t      -1.00000 -1.00000 -1.00000 -1.00000 -1.00000 -1.00000 -1.00000 -1.00000
 (dLV/dLT)p        1.0000   1.0000   1.0000   1.0000   1.0000   1.0000   1.0000   1.0000
 Cp, KJ/(KG)(K)   14.5773  14.5840  14.5911  14.5984  14.5115  14.5138  14.5161  14.5186
 GAMMAs            1.3946   1.3943   1.3941   1.3938   1.3971   1.3970   1.3969   1.3968
 SON VEL,M/SEC     1948.4   1962.9   1977.3   1991.6   1697.4   1714.2   1730.9   1747.4

 TRANSPORT PROPERTIES (GASES ONLY)
   CONDUCTIVITY IN UNITS OF MILLIWATTS/(CM)(K)

 VISC,MILLIPOISE  0.15358  0.15520  0.15680  0.15840  0.12683  0.12856  0.13028  0.13200

  WITH EQUILIBRIUM REACTIONS

 Cp, KJ/(KG)(K)   14.5773  14.5840  14.5911  14.5984  14.5115  14.5138  14.5161  14.5186
 CONDUCTIVITY      3.2473   3.2827   3.3180   3.3533   2.6732   2.7098   2.7462   2.7826
 PRANDTL NUMBER    0.6894   0.6895   0.6896   0.6896   0.6885   0.6886   0.6886   0.6887

  WITH FROZEN REACTIONS

 Cp, KJ/(KG)(K)   14.5773  14.5840  14.5911  14.5984  14.5115  14.5138  14.5161  14.5186
 CONDUCTIVITY      3.2473   3.2827   3.3180   3.3533   2.6732   2.7098   2.7462   2.7826
 PRANDTL NUMBER    0.6894   0.6895   0.6896   0.6896   0.6885   0.6886   0.6886   0.6887

 MASS FRACTIONS

 *H2              1.00000  1.00000  1.00000  1.00000  1.00000  1.00000  1.00000  1.00000

  * THERMODYNAMIC PROPERTIES FITTED TO 20000.K

 NOTE. WEIGHT FRACTION OF FUEL IN TOTAL FUELS AND OF OXIDANT IN TOTAL OXIDANTS









               THERMODYNAMIC EQUILIBRIUM PROPERTIES AT ASSIGNED

                           TEMPERATURE AND PRESSURE

 CASE =                

             REACTANT                    WT FRACTION      ENERGY      TEMP
                                          (SEE NOTE)     KJ/KG-MOL      K  
 FUEL        H2                           1.0000000         0.000      0.000
 OXIDANT     H2                           1.0000000         0.000      0.000

 O/F=    1.00000  %FUEL= 50.000000  R,EQ.RATIO= 0.000000  PHI,EQ.RATIO=-1.000000

 THERMODYNAMIC PROPERTIES

 P, BAR           0.08000  0.08000  0.08000  0.08000  0.08000  0.08000  0.08000  0.08000
 T, K              540.00   550.00   560.00   570.00   580.00   590.00   600.00   610.00
 RHO, KG/CU M    3.5919-3 3.5266-3 3.4636-3 3.4029-3 3.3442-3 3.2875-3 3.2327-3 3.1797-3
 H, KJ/KG         3498.75  3643.98  3789.24  3934.53  4079.86  4225.23  4370.65  4516.11
 U, KJ/KG         1271.52  1375.50  1479.52  1583.56  1687.65  1791.77  1895.94  2000.16
 G, KJ/KG        -41769.8 -42609.4 -43451.7 -44296.6 -45144.0 -45993.9 -46846.3 -47701.1
 S, KJ/(KG)(K)    83.8306  84.0971  84.3588  84.6160  84.8687  85.1172  85.3616  85.6020

 M, (1/n)           2.016    2.016    2.016    2.016    2.016    2.016    2.016    2.016
 (dLV/dLP)t      -1.00000 -1.00000 -1.00000 -1.00000 -1.00000 -1.00000 -1.00000 -1.00000
 (dLV/dLT)p        1.0000   1.0000   1.0000   1.0000   1.0000   1.0000   1.0000   1.0000
 Cp, KJ/(KG)(K)   14.5214  14.5243  14.5276  14.5311  14.5350  14.5391  14.5436  14.5484
 GAMMAs            1.3967   1.3966   1.3965   1.3963   1.3962   1.3960   1.3959   1.3957
 SON VEL,M/SEC     1763.7   1779.9   1796.0   1811.8   1827.6   1843.1   1858.6   1873.9

 TRANSPORT PROPERTIES (GASES ONLY)
   CONDUCTIVITY IN UNITS OF MILLIWATTS/(CM)(K)

 VISC,MILLIPOISE  0.13370  0.13540  0.13709  0.13877  0.14044  0.14211  0.14377  0.14542

  WITH EQUILIBRIUM REACTIONS

 Cp, KJ/(KG)(K)   14.5214  14.5243  14.5276  14.5311  14.5350  14.5391  14.5436  14.5484
 CONDUCTIVITY      2.8188   2.8549   2.8909   2.9268   2.9627   2.9984   3.0342   3.0698
 PRANDTL NUMBER    0.6888   0.6889   0.6889   0.6890   0.6890   0.6891   0.6891   0.6892

  WITH FROZEN REACTIONS

 Cp, KJ/(KG)(K)   14.5214  14.5243  14.5276  14.5311  14.5350  14.5391  14.5436  14.5484
 CONDUCTIVITY      2.8188   2.8549   2.8909   2.9268   2.9627   2.9984   3.0342   3.0698
 PRANDTL NUMBER    0.6888   0.6889   0.6889   0.6890   0.6890   0.6891   0.6891   0.6892

 MASS FRACTIONS

 *H2              1.00000  1.00000  1.00000  1.00000  1.00000  1.00000  1.00000  1.00000

  * THERMODYNAMIC PROPERTIES FITTED TO 20000.K

 NOTE. WEIGHT FRACTION OF FUEL IN TOTAL FUELS AND OF OXIDANT IN TOTAL OXIDANTS









               THERMODYNAMIC EQUILIBRIUM PROPERTIES AT ASSIGNED

                           TEMPERATURE AND PRESSURE

 CASE =                

             REACTANT                    WT FRACTION      ENERGY      TEMP
                                          (SEE NOTE)     KJ/KG-MOL      K  
 FUEL        H2                           1.0000000         0.000      0.000
 OXIDANT     H2                           1.0000000         0.000      0.000

 O/F=    1.00000  %FUEL= 50.000000  R,EQ.RATIO= 0.000000  PHI,EQ.RATIO=-1.000000

 THERMODYNAMIC PROPERTIES

 P, BAR           0.08000  0.08000  0.08000  0.08000  0.08000  0.08000  0.08000  0.08000
 T, K              620.00   630.00   640.00   650.00   660.00   670.00   680.00   690.00
 RHO, KG/CU M    3.1284-3 3.0788-3 3.0307-3 2.9840-3 2.9388-3 2.8950-3 2.8524-3 2.8111-3
 H, KJ/KG         4661.62  4807.18  4952.80  5098.47  5244.21  5390.02  5535.90  5681.84
 U, KJ/KG         2104.42  2208.74  2313.11  2417.54  2522.04  2626.60  2731.23  2835.93
 G, KJ/KG        -48558.4 -49417.9 -50279.8 -51143.9 -52010.3 -52878.9 -53749.7 -54622.6
 S, KJ/(KG)(K)    85.8387  86.0716  86.3009  86.5267  86.7493  86.9685  87.1846  87.3977

 M, (1/n)           2.016    2.016    2.016    2.016    2.016    2.016    2.016    2.016
 (dLV/dLP)t      -1.00000 -1.00000 -1.00000 -1.00000 -1.00000 -1.00000 -1.00000 -1.00000
 (dLV/dLT)p        1.0000   1.0000   1.0000   1.0000   1.0000   1.0000   1.0000   1.0000
 Cp, KJ/(KG)(K)   14.5535  14.5590  14.5648  14.5709  14.5773  14.5840  14.5911  14.5984
 GAMMAs            1.3955   1.3953   1.3951   1.3948   1.3946   1.3943   1.3941   1.3938
 SON VEL,M/SEC     1889.1   1904.1   1919.0   1933.8   1948.4   1962.9   1977.3   1991.6

 TRANSPORT PROPERTIES (GASES ONLY)
   CONDUCTIVITY IN UNITS OF MILLIWATTS/(CM)(K)

 VISC,MILLIPOISE  0.14707  0.14871  0.15034  0.15196  0.15358  0.15520  0.15680  0.15840

  WITH EQUILIBRIUM REACTIONS

 Cp, KJ/(KG)(K)   14.5535  14.5590  14.5648  14.5709  14.5773  14.5840  14.5911  14.5984
 CONDUCTIVITY      3.1054   3.1410   3.1764   3.2119   3.2473   3.2827   3.3180   3.3533
 PRANDTL NUMBER    0.6892   0.6893   0.6893   0.6894   0.6894   0.6895   0.6896   0.6896

  WITH FROZEN REACTIONS

 Cp, KJ/(KG)(K)   14.5535  14.5590  14.5648  14.5709  14.5773  14.5840  14.5911  14.5984
 CONDUCTIVITY      3.1054   3.1410   3.1764   3.2119   3.2473   3.2827   3.3180   3.3533
 PRANDTL NUMBER    0.6892   0.6893   0.6893   0.6894   0.6894   0.6895   0.6896   0.6896

 MASS FRACTIONS

 *H2              1.00000  1.00000  1.00000  1.00000  1.00000  1.00000  1.00000  1.00000

  * THERMODYNAMIC PROPERTIES FITTED TO 20000.K

 NOTE. WEIGHT FRACTION OF FUEL IN TOTAL FUELS AND OF OXIDANT IN TOTAL OXIDANTS



  
