
 *******************************************************************************

         NASA-GLENN CHEMICAL EQUILIBRIUM PROGRAM CEA2, MAY 21, 2004
                   BY  BONNIE MCBRIDE AND SANFORD GORDON
      REFS: NASA RP-1311, PART I, 1994 AND NASA RP-1311, PART II, 1996

 *******************************************************************************



  prob tp ions
  p,bar= 280.0,310.0,350.0,390.0,440.0,490.0,540.0,600.0,670.0,740.0,825.0,910.0
  t,k= 2850,2860,2870,2880,2890,2900,2910,2920,2930,2940,2950,2960,2970,2980,2990
  
  reac
  na H2                wt%=100.0000
  
  output short
  output siunits
  output transport
  
 end





               THERMODYNAMIC EQUILIBRIUM PROPERTIES AT ASSIGNED

                           TEMPERATURE AND PRESSURE

 CASE =                

             REACTANT                    WT FRACTION      ENERGY      TEMP
                                          (SEE NOTE)     KJ/KG-MOL      K  
             H2                           1.0000000         0.000      0.000

 O/F=    0.00000  %FUEL=100.000000  R,EQ.RATIO= 0.000000  PHI,EQ.RATIO= 0.000000

 THERMODYNAMIC PROPERTIES

 P, BAR            280.00   280.00   280.00   280.00   280.00   280.00   280.00   280.00
 T, K             2850.00  2860.00  2870.00  2880.00  2890.00  2900.00  2910.00  2920.00
 RHO, KG/CU M    2.3751 0 2.3665 0 2.3581 0 2.3496 0 2.3412 0 2.3329 0 2.3246 0 2.3164 0
 H, KJ/KG         41932.6  42137.6  42343.5  42550.1  42757.5  42965.7  43174.7  43384.5
 U, KJ/KG         30143.5  30306.0  30469.3  30633.3  30798.0  30963.5  31129.8  31296.7
 G, KJ/KG       -176724.8-177491.8-178260.0-179029.0-179798.8-180569.2-181340.4-182112.3
 S, KJ/(KG)(K)    76.7219  76.7935  76.8653  76.9372  77.0091  77.0810  77.1530  77.2249

 M, (1/n)           2.010    2.010    2.010    2.009    2.009    2.009    2.009    2.009
 (dLV/dLP)t      -1.00145 -1.00150 -1.00155 -1.00160 -1.00166 -1.00171 -1.00177 -1.00183
 (dLV/dLT)p        1.0281   1.0290   1.0299   1.0308   1.0317   1.0326   1.0336   1.0346
 Cp, KJ/(KG)(K)   20.4783  20.5521  20.6270  20.7031  20.7804  20.8589  20.9386  21.0195
 GAMMAs            1.2691   1.2684   1.2677   1.2670   1.2663   1.2656   1.2649   1.2642
 SON VEL,M/SEC     3868.1   3874.0   3879.8   3885.7   3891.6   3897.4   3903.3   3909.1

 TRANSPORT PROPERTIES (GASES ONLY)
   CONDUCTIVITY IN UNITS OF MILLIWATTS/(CM)(K)

 VISC,MILLIPOISE  0.43953  0.44078  0.44204  0.44330  0.44456  0.44582  0.44709  0.44835

  WITH EQUILIBRIUM REACTIONS

 Cp, KJ/(KG)(K)   20.4783  20.5521  20.6270  20.7031  20.7804  20.8589  20.9386  21.0195
 CONDUCTIVITY     14.1398  14.2636  14.3899  14.5183  14.6488  14.7812  14.9158  15.0524
 PRANDTL NUMBER    0.6366   0.6351   0.6336   0.6321   0.6306   0.6291   0.6276   0.6261

  WITH FROZEN REACTIONS

 Cp, KJ/(KG)(K)   18.2270  18.2390  18.2510  18.2629  18.2749  18.2867  18.2986  18.3104
 CONDUCTIVITY     11.3819  11.4218  11.4624  11.5031  11.5438  11.5847  11.6256  11.6666
 PRANDTL NUMBER    0.7039   0.7039   0.7038   0.7038   0.7038   0.7037   0.7037   0.7037

 MOLE FRACTIONS

 *H               0.00581  0.00600  0.00621  0.00642  0.00664  0.00686  0.00708  0.00732
 *H2              0.99419  0.99400  0.99379  0.99358  0.99336  0.99314  0.99292  0.99268

  * THERMODYNAMIC PROPERTIES FITTED TO 20000.K

 NOTE. WEIGHT FRACTION OF FUEL IN TOTAL FUELS AND OF OXIDANT IN TOTAL OXIDANTS









               THERMODYNAMIC EQUILIBRIUM PROPERTIES AT ASSIGNED

                           TEMPERATURE AND PRESSURE

 CASE =                

             REACTANT                    WT FRACTION      ENERGY      TEMP
                                          (SEE NOTE)     KJ/KG-MOL      K  
             H2                           1.0000000         0.000      0.000

 O/F=    0.00000  %FUEL=100.000000  R,EQ.RATIO= 0.000000  PHI,EQ.RATIO= 0.000000

 THERMODYNAMIC PROPERTIES

 P, BAR            280.00   280.00   280.00   280.00   280.00   280.00   280.00   310.00
 T, K             2930.00  2940.00  2950.00  2960.00  2970.00  2980.00  2990.00  2850.00
 RHO, KG/CU M    2.3082 0 2.3001 0 2.2920 0 2.2839 0 2.2760 0 2.2680 0 2.2601 0 2.6299 0
 H, KJ/KG         43595.1  43806.6  44018.8  44232.0  44445.9  44660.8  44876.6  41899.6
 U, KJ/KG         31464.5  31633.0  31802.3  31972.5  32143.4  32315.2  32487.8  30112.2
 G, KJ/KG       -182884.9-183658.2-184432.3-185207.0-185982.5-186758.7-187535.7-175524.3
 S, KJ/(KG)(K)    77.2969  77.3690  77.4410  77.5132  77.5853  77.6576  77.7298  76.2891

 M, (1/n)           2.008    2.008    2.008    2.008    2.007    2.007    2.007    2.010
 (dLV/dLP)t      -1.00189 -1.00195 -1.00201 -1.00208 -1.00214 -1.00221 -1.00228 -1.00138
 (dLV/dLT)p        1.0356   1.0366   1.0377   1.0388   1.0399   1.0410   1.0422   1.0267
 Cp, KJ/(KG)(K)   21.1017  21.1851  21.2697  21.3556  21.4427  21.5312  21.6209  20.3662
 GAMMAs            1.2635   1.2628   1.2621   1.2613   1.2606   1.2599   1.2592   1.2702
 SON VEL,M/SEC     3914.9   3920.8   3926.6   3932.4   3938.2   3943.9   3949.7   3869.3

 TRANSPORT PROPERTIES (GASES ONLY)
   CONDUCTIVITY IN UNITS OF MILLIWATTS/(CM)(K)

 VISC,MILLIPOISE  0.44962  0.45089  0.45216  0.45344  0.45471  0.45599  0.45727  0.43945

  WITH EQUILIBRIUM REACTIONS

 Cp, KJ/(KG)(K)   21.1017  21.1851  21.2697  21.3556  21.4427  21.5312  21.6209  20.3662
 CONDUCTIVITY     15.1912  15.3322  15.4753  15.6207  15.7682  15.9181  16.0702  13.9999
 PRANDTL NUMBER    0.6246   0.6230   0.6215   0.6199   0.6183   0.6168   0.6152   0.6393

  WITH FROZEN REACTIONS

 Cp, KJ/(KG)(K)   18.3222  18.3339  18.3456  18.3573  18.3689  18.3805  18.3920  18.2266
 CONDUCTIVITY     11.7077  11.7489  11.7901  11.8315  11.8729  11.9144  11.9560  11.3784
 PRANDTL NUMBER    0.7036   0.7036   0.7036   0.7035   0.7035   0.7035   0.7034   0.7039

 MOLE FRACTIONS

 *H               0.00756  0.00780  0.00805  0.00831  0.00857  0.00885  0.00912  0.00552
 *H2              0.99244  0.99220  0.99195  0.99169  0.99143  0.99115  0.99088  0.99448

  * THERMODYNAMIC PROPERTIES FITTED TO 20000.K

 NOTE. WEIGHT FRACTION OF FUEL IN TOTAL FUELS AND OF OXIDANT IN TOTAL OXIDANTS









               THERMODYNAMIC EQUILIBRIUM PROPERTIES AT ASSIGNED

                           TEMPERATURE AND PRESSURE

 CASE =                

             REACTANT                    WT FRACTION      ENERGY      TEMP
                                          (SEE NOTE)     KJ/KG-MOL      K  
             H2                           1.0000000         0.000      0.000

 O/F=    0.00000  %FUEL=100.000000  R,EQ.RATIO= 0.000000  PHI,EQ.RATIO= 0.000000

 THERMODYNAMIC PROPERTIES

 P, BAR            310.00   310.00   310.00   310.00   310.00   310.00   310.00   310.00
 T, K             2860.00  2870.00  2880.00  2890.00  2900.00  2910.00  2920.00  2930.00
 RHO, KG/CU M    2.6205 0 2.6111 0 2.6018 0 2.5925 0 2.5833 0 2.5741 0 2.5650 0 2.5560 0
 H, KJ/KG         42103.6  42308.3  42513.7  42719.9  42926.9  43134.6  43343.0  43552.3
 U, KJ/KG         30273.7  30435.9  30598.8  30762.4  30926.7  31091.7  31257.4  31423.9
 G, KJ/KG       -176287.6-177051.5-177816.2-178581.6-179347.7-180114.5-180882.0-181650.3
 S, KJ/(KG)(K)    76.3605  76.4320  76.5035  76.5749  76.6464  76.7179  76.7894  76.8609

 M, (1/n)           2.010    2.010    2.010    2.010    2.009    2.009    2.009    2.009
 (dLV/dLP)t      -1.00143 -1.00148 -1.00153 -1.00158 -1.00163 -1.00168 -1.00174 -1.00180
 (dLV/dLT)p        1.0275   1.0284   1.0292   1.0301   1.0310   1.0319   1.0329   1.0339
 Cp, KJ/(KG)(K)   20.4370  20.5088  20.5817  20.6557  20.7309  20.8072  20.8847  20.9633
 GAMMAs            1.2695   1.2688   1.2681   1.2674   1.2667   1.2660   1.2653   1.2646
 SON VEL,M/SEC     3875.3   3881.2   3887.1   3892.9   3898.8   3904.7   3910.5   3916.4

 TRANSPORT PROPERTIES (GASES ONLY)
   CONDUCTIVITY IN UNITS OF MILLIWATTS/(CM)(K)

 VISC,MILLIPOISE  0.44071  0.44196  0.44322  0.44448  0.44574  0.44700  0.44826  0.44952

  WITH EQUILIBRIUM REACTIONS

 Cp, KJ/(KG)(K)   20.4370  20.5088  20.5817  20.6557  20.7309  20.8072  20.8847  20.9633
 CONDUCTIVITY     14.1201  14.2421  14.3661  14.4920  14.6198  14.7497  14.8815  15.0153
 PRANDTL NUMBER    0.6379   0.6364   0.6350   0.6335   0.6321   0.6306   0.6291   0.6276

  WITH FROZEN REACTIONS

 Cp, KJ/(KG)(K)   18.2386  18.2506  18.2626  18.2745  18.2863  18.2982  18.3100  18.3217
 CONDUCTIVITY     11.4188  11.4594  11.5000  11.5406  11.5814  11.6222  11.6631  11.7040
 PRANDTL NUMBER    0.7039   0.7039   0.7039   0.7038   0.7038   0.7038   0.7037   0.7037

 MOLE FRACTIONS

 *H               0.00571  0.00590  0.00610  0.00631  0.00652  0.00673  0.00696  0.00718
 *H2              0.99429  0.99410  0.99390  0.99369  0.99348  0.99327  0.99304  0.99282

  * THERMODYNAMIC PROPERTIES FITTED TO 20000.K

 NOTE. WEIGHT FRACTION OF FUEL IN TOTAL FUELS AND OF OXIDANT IN TOTAL OXIDANTS









               THERMODYNAMIC EQUILIBRIUM PROPERTIES AT ASSIGNED

                           TEMPERATURE AND PRESSURE

 CASE =                

             REACTANT                    WT FRACTION      ENERGY      TEMP
                                          (SEE NOTE)     KJ/KG-MOL      K  
             H2                           1.0000000         0.000      0.000

 O/F=    0.00000  %FUEL=100.000000  R,EQ.RATIO= 0.000000  PHI,EQ.RATIO= 0.000000

 THERMODYNAMIC PROPERTIES

 P, BAR            310.00   310.00   310.00   310.00   310.00   310.00   350.00   350.00
 T, K             2940.00  2950.00  2960.00  2970.00  2980.00  2990.00  2850.00  2860.00
 RHO, KG/CU M    2.5470 0 2.5381 0 2.5292 0 2.5203 0 2.5116 0 2.5028 0 2.9698 0 2.9591 0
 H, KJ/KG         43762.3  43973.1  44184.8  44397.3  44610.6  44824.7  41862.5  42065.2
 U, KJ/KG         31591.1  31759.1  31927.8  32097.3  32267.7  32438.8  30077.0  30237.4
 G, KJ/KG       -182419.3-183189.0-183959.4-184730.5-185502.3-186274.8-174093.9-174852.0
 S, KJ/(KG)(K)    76.9325  77.0041  77.0757  77.1474  77.2191  77.2908  75.7742  75.8452

 M, (1/n)           2.008    2.008    2.008    2.008    2.007    2.007    2.011    2.010
 (dLV/dLP)t      -1.00185 -1.00191 -1.00197 -1.00204 -1.00210 -1.00217 -1.00130 -1.00134
 (dLV/dLT)p        1.0348   1.0358   1.0369   1.0379   1.0390   1.0401   1.0251   1.0259
 Cp, KJ/(KG)(K)   21.0432  21.1242  21.2064  21.2898  21.3744  21.4602  20.2399  20.3071
 GAMMAs            1.2639   1.2632   1.2626   1.2619   1.2612   1.2605   1.2713   1.2707
 SON VEL,M/SEC     3922.2   3928.0   3933.8   3939.6   3945.4   3951.2   3870.8   3876.7

 TRANSPORT PROPERTIES (GASES ONLY)
   CONDUCTIVITY IN UNITS OF MILLIWATTS/(CM)(K)

 VISC,MILLIPOISE  0.45079  0.45206  0.45333  0.45460  0.45587  0.45715  0.43937  0.44062

  WITH EQUILIBRIUM REACTIONS

 Cp, KJ/(KG)(K)   21.0432  21.1242  21.2064  21.2898  21.3744  21.4602  20.2399  20.3071
 CONDUCTIVITY     15.1512  15.2892  15.4293  15.5716  15.7159  15.8625  13.8428  13.9582
 PRANDTL NUMBER    0.6261   0.6246   0.6231   0.6215   0.6200   0.6185   0.6424   0.6410

  WITH FROZEN REACTIONS

 Cp, KJ/(KG)(K)   18.3334  18.3451  18.3568  18.3684  18.3800  18.3915  18.2262  18.2382
 CONDUCTIVITY     11.7451  11.7862  11.8274  11.8687  11.9100  11.9515  11.3753  11.4156
 PRANDTL NUMBER    0.7037   0.7036   0.7036   0.7036   0.7035   0.7035   0.7040   0.7040

 MOLE FRACTIONS

 *H               0.00742  0.00765  0.00790  0.00815  0.00841  0.00867  0.00519  0.00537
 *H2              0.99258  0.99235  0.99210  0.99185  0.99159  0.99133  0.99481  0.99463

  * THERMODYNAMIC PROPERTIES FITTED TO 20000.K

 NOTE. WEIGHT FRACTION OF FUEL IN TOTAL FUELS AND OF OXIDANT IN TOTAL OXIDANTS









               THERMODYNAMIC EQUILIBRIUM PROPERTIES AT ASSIGNED

                           TEMPERATURE AND PRESSURE

 CASE =                

             REACTANT                    WT FRACTION      ENERGY      TEMP
                                          (SEE NOTE)     KJ/KG-MOL      K  
             H2                           1.0000000         0.000      0.000

 O/F=    0.00000  %FUEL=100.000000  R,EQ.RATIO= 0.000000  PHI,EQ.RATIO= 0.000000

 THERMODYNAMIC PROPERTIES

 P, BAR            350.00   350.00   350.00   350.00   350.00   350.00   350.00   350.00
 T, K             2870.00  2880.00  2890.00  2900.00  2910.00  2920.00  2930.00  2940.00
 RHO, KG/CU M    2.9485 0 2.9380 0 2.9276 0 2.9172 0 2.9069 0 2.8966 0 2.8864 0 2.8763 0
 H, KJ/KG         42268.6  42472.7  42677.5  42883.0  43089.3  43296.2  43503.9  43712.4
 U, KJ/KG         30398.3  30559.9  30722.2  30885.2  31048.8  31213.1  31378.1  31543.8
 G, KJ/KG       -175610.8-176370.3-177130.5-177891.5-178653.1-179415.5-180178.5-180942.3
 S, KJ/(KG)(K)    75.9162  75.9872  76.0582  76.1291  76.2001  76.2711  76.3421  76.4132

 M, (1/n)           2.010    2.010    2.010    2.010    2.009    2.009    2.009    2.009
 (dLV/dLP)t      -1.00139 -1.00144 -1.00148 -1.00153 -1.00158 -1.00164 -1.00169 -1.00175
 (dLV/dLT)p        1.0267   1.0275   1.0284   1.0292   1.0301   1.0310   1.0319   1.0328
 Cp, KJ/(KG)(K)   20.3754  20.4447  20.5151  20.5865  20.6590  20.7326  20.8073  20.8831
 GAMMAs            1.2700   1.2693   1.2686   1.2680   1.2673   1.2666   1.2660   1.2653
 SON VEL,M/SEC     3882.7   3888.6   3894.5   3900.4   3906.3   3912.1   3918.0   3923.9

 TRANSPORT PROPERTIES (GASES ONLY)
   CONDUCTIVITY IN UNITS OF MILLIWATTS/(CM)(K)

 VISC,MILLIPOISE  0.44187  0.44313  0.44438  0.44564  0.44689  0.44815  0.44941  0.45068

  WITH EQUILIBRIUM REACTIONS

 Cp, KJ/(KG)(K)   20.3754  20.4447  20.5151  20.5865  20.6590  20.7326  20.8073  20.8831
 CONDUCTIVITY     14.0754  14.1944  14.3151  14.4378  14.5622  14.6886  14.8169  14.9471
 PRANDTL NUMBER    0.6397   0.6383   0.6368   0.6354   0.6340   0.6326   0.6311   0.6297

  WITH FROZEN REACTIONS

 Cp, KJ/(KG)(K)   18.2502  18.2621  18.2740  18.2859  18.2977  18.3095  18.3212  18.3329
 CONDUCTIVITY     11.4560  11.4965  11.5370  11.5776  11.6183  11.6591  11.6999  11.7408
 PRANDTL NUMBER    0.7039   0.7039   0.7039   0.7038   0.7038   0.7038   0.7038   0.7037

 MOLE FRACTIONS

 *H               0.00556  0.00574  0.00594  0.00613  0.00634  0.00655  0.00676  0.00698
 *H2              0.99444  0.99426  0.99406  0.99387  0.99366  0.99345  0.99324  0.99302

  * THERMODYNAMIC PROPERTIES FITTED TO 20000.K

 NOTE. WEIGHT FRACTION OF FUEL IN TOTAL FUELS AND OF OXIDANT IN TOTAL OXIDANTS









               THERMODYNAMIC EQUILIBRIUM PROPERTIES AT ASSIGNED

                           TEMPERATURE AND PRESSURE

 CASE =                

             REACTANT                    WT FRACTION      ENERGY      TEMP
                                          (SEE NOTE)     KJ/KG-MOL      K  
             H2                           1.0000000         0.000      0.000

 O/F=    0.00000  %FUEL=100.000000  R,EQ.RATIO= 0.000000  PHI,EQ.RATIO= 0.000000

 THERMODYNAMIC PROPERTIES

 P, BAR            350.00   350.00   350.00   350.00   350.00   390.00   390.00   390.00
 T, K             2950.00  2960.00  2970.00  2980.00  2990.00  2850.00  2860.00  2870.00
 RHO, KG/CU M    2.8662 0 2.8562 0 2.8462 0 2.8363 0 2.8265 0 3.3096 0 3.2978 0 3.2860 0
 H, KJ/KG         43921.6  44131.6  44342.3  44553.9  44766.3  41831.3  42032.9  42235.2
 U, KJ/KG         31710.3  31877.5  32045.4  32214.0  32383.5  30047.4  30206.7  30366.6
 G, KJ/KG       -181706.8-182472.0-183237.9-184004.5-184771.9-172818.7-173572.2-174326.4
 S, KJ/(KG)(K)    76.4842  76.5553  76.6264  76.6975  76.7686  75.3158  75.3864  75.4570

 M, (1/n)           2.009    2.008    2.008    2.008    2.008    2.011    2.011    2.011
 (dLV/dLP)t      -1.00180 -1.00186 -1.00192 -1.00198 -1.00204 -1.00123 -1.00127 -1.00132
 (dLV/dLT)p        1.0337   1.0347   1.0357   1.0367   1.0377   1.0238   1.0246   1.0253
 Cp, KJ/(KG)(K)   20.9600  21.0381  21.1172  21.1975  21.2790  20.1335  20.1978  20.2631
 GAMMAs            1.2646   1.2639   1.2633   1.2626   1.2619   1.2723   1.2717   1.2710
 SON VEL,M/SEC     3929.7   3935.5   3941.3   3947.2   3953.0   3872.1   3878.0   3884.0

 TRANSPORT PROPERTIES (GASES ONLY)
   CONDUCTIVITY IN UNITS OF MILLIWATTS/(CM)(K)

 VISC,MILLIPOISE  0.45194  0.45320  0.45447  0.45574  0.45701  0.43930  0.44055  0.44180

  WITH EQUILIBRIUM REACTIONS

 Cp, KJ/(KG)(K)   20.9600  21.0381  21.1172  21.1975  21.2790  20.1335  20.1978  20.2631
 CONDUCTIVITY     15.0793  15.2135  15.3496  15.4879  15.6281  13.7106  13.8219  13.9350
 PRANDTL NUMBER    0.6282   0.6267   0.6252   0.6238   0.6223   0.6451   0.6438   0.6424

  WITH FROZEN REACTIONS

 Cp, KJ/(KG)(K)   18.3446  18.3562  18.3679  18.3794  18.3910  18.2259  18.2379  18.2499
 CONDUCTIVITY     11.7818  11.8228  11.8639  11.9051  11.9464  11.3726  11.4129  11.4532
 PRANDTL NUMBER    0.7037   0.7037   0.7036   0.7036   0.7035   0.7040   0.7040   0.7040

 MOLE FRACTIONS

 *H               0.00721  0.00744  0.00767  0.00792  0.00816  0.00492  0.00509  0.00526
 *H2              0.99279  0.99256  0.99233  0.99208  0.99184  0.99508  0.99491  0.99474

  * THERMODYNAMIC PROPERTIES FITTED TO 20000.K

 NOTE. WEIGHT FRACTION OF FUEL IN TOTAL FUELS AND OF OXIDANT IN TOTAL OXIDANTS









               THERMODYNAMIC EQUILIBRIUM PROPERTIES AT ASSIGNED

                           TEMPERATURE AND PRESSURE

 CASE =                

             REACTANT                    WT FRACTION      ENERGY      TEMP
                                          (SEE NOTE)     KJ/KG-MOL      K  
             H2                           1.0000000         0.000      0.000

 O/F=    0.00000  %FUEL=100.000000  R,EQ.RATIO= 0.000000  PHI,EQ.RATIO= 0.000000

 THERMODYNAMIC PROPERTIES

 P, BAR            390.00   390.00   390.00   390.00   390.00   390.00   390.00   390.00
 T, K             2880.00  2890.00  2900.00  2910.00  2920.00  2930.00  2940.00  2950.00
 RHO, KG/CU M    3.2743 0 3.2627 0 3.2511 0 3.2396 0 3.2282 0 3.2169 0 3.2056 0 3.1944 0
 H, KJ/KG         42438.2  42641.8  42846.1  43051.1  43256.8  43463.2  43670.3  43878.2
 U, KJ/KG         30527.2  30688.4  30850.2  31012.7  31175.8  31339.6  31504.0  31669.2
 G, KJ/KG       -175081.3-175836.9-176593.3-177350.3-178108.0-178866.5-179625.6-180385.5
 S, KJ/(KG)(K)    75.5276  75.5982  75.6687  75.7393  75.8099  75.8804  75.9510  76.0216

 M, (1/n)           2.010    2.010    2.010    2.010    2.010    2.009    2.009    2.009
 (dLV/dLP)t      -1.00136 -1.00141 -1.00145 -1.00150 -1.00155 -1.00160 -1.00165 -1.00171
 (dLV/dLT)p        1.0261   1.0269   1.0277   1.0285   1.0293   1.0302   1.0311   1.0320
 Cp, KJ/(KG)(K)   20.3294  20.3967  20.4650  20.5343  20.6046  20.6760  20.7484  20.8218
 GAMMAs            1.2704   1.2697   1.2691   1.2684   1.2677   1.2671   1.2664   1.2658
 SON VEL,M/SEC     3889.9   3895.8   3901.7   3907.6   3913.5   3919.4   3925.3   3931.1

 TRANSPORT PROPERTIES (GASES ONLY)
   CONDUCTIVITY IN UNITS OF MILLIWATTS/(CM)(K)

 VISC,MILLIPOISE  0.44305  0.44430  0.44555  0.44681  0.44806  0.44932  0.45058  0.45184

  WITH EQUILIBRIUM REACTIONS

 Cp, KJ/(KG)(K)   20.3294  20.3967  20.4650  20.5343  20.6046  20.6760  20.7484  20.8218
 CONDUCTIVITY     14.0497  14.1662  14.2844  14.4044  14.5262  14.6498  14.7752  14.9025
 PRANDTL NUMBER    0.6411   0.6397   0.6383   0.6369   0.6356   0.6341   0.6327   0.6313

  WITH FROZEN REACTIONS

 Cp, KJ/(KG)(K)   18.2618  18.2737  18.2855  18.2973  18.3091  18.3208  18.3325  18.3442
 CONDUCTIVITY     11.4935  11.5340  11.5745  11.6151  11.6557  11.6964  11.7372  11.7780
 PRANDTL NUMBER    0.7039   0.7039   0.7039   0.7039   0.7038   0.7038   0.7038   0.7037

 MOLE FRACTIONS

 *H               0.00544  0.00562  0.00581  0.00601  0.00620  0.00641  0.00661  0.00683
 *H2              0.99456  0.99438  0.99419  0.99399  0.99380  0.99359  0.99339  0.99317

  * THERMODYNAMIC PROPERTIES FITTED TO 20000.K

 NOTE. WEIGHT FRACTION OF FUEL IN TOTAL FUELS AND OF OXIDANT IN TOTAL OXIDANTS









               THERMODYNAMIC EQUILIBRIUM PROPERTIES AT ASSIGNED

                           TEMPERATURE AND PRESSURE

 CASE =                

             REACTANT                    WT FRACTION      ENERGY      TEMP
                                          (SEE NOTE)     KJ/KG-MOL      K  
             H2                           1.0000000         0.000      0.000

 O/F=    0.00000  %FUEL=100.000000  R,EQ.RATIO= 0.000000  PHI,EQ.RATIO= 0.000000

 THERMODYNAMIC PROPERTIES

 P, BAR            390.00   390.00   390.00   390.00   440.00   440.00   440.00   440.00
 T, K             2960.00  2970.00  2980.00  2990.00  2850.00  2860.00  2870.00  2880.00
 RHO, KG/CU M    3.1832 0 3.1722 0 3.1611 0 3.1502 0 3.7345 0 3.7211 0 3.7078 0 3.6947 0
 H, KJ/KG         44086.8  44296.1  44506.2  44717.1  41798.4  41998.9  42200.1  42401.8
 U, KJ/KG         31835.1  32001.6  32168.9  32336.9  30016.3  30174.5  30333.3  30492.7
 G, KJ/KG       -181146.1-181907.4-182669.3-183432.0-171397.3-172145.7-172894.8-173644.6
 S, KJ/(KG)(K)    76.0922  76.1628  76.2334  76.3041  74.8055  74.8757  74.9459  75.0161

 M, (1/n)           2.009    2.009    2.008    2.008    2.011    2.011    2.011    2.011
 (dLV/dLP)t      -1.00176 -1.00182 -1.00187 -1.00193 -1.00116 -1.00120 -1.00124 -1.00128
 (dLV/dLT)p        1.0329   1.0338   1.0348   1.0357   1.0224   1.0231   1.0238   1.0246
 Cp, KJ/(KG)(K)   20.8964  20.9720  21.0486  21.1264  20.0215  20.0827  20.1449  20.2080
 GAMMAs            1.2651   1.2645   1.2638   1.2631   1.2734   1.2728   1.2721   1.2715
 SON VEL,M/SEC     3937.0   3942.8   3948.6   3954.5   3873.4   3879.4   3885.3   3891.3

 TRANSPORT PROPERTIES (GASES ONLY)
   CONDUCTIVITY IN UNITS OF MILLIWATTS/(CM)(K)

 VISC,MILLIPOISE  0.45310  0.45436  0.45563  0.45690  0.43923  0.44047  0.44172  0.44297

  WITH EQUILIBRIUM REACTIONS

 Cp, KJ/(KG)(K)   20.8964  20.9720  21.0486  21.1264  20.0215  20.0827  20.1449  20.2080
 CONDUCTIVITY     15.0317  15.1627  15.2957  15.4307  13.5713  13.6784  13.7871  13.8974
 PRANDTL NUMBER    0.6299   0.6284   0.6270   0.6255   0.6480   0.6467   0.6454   0.6441

  WITH FROZEN REACTIONS

 Cp, KJ/(KG)(K)   18.3558  18.3674  18.3790  18.3905  18.2255  18.2375  18.2495  18.2614
 CONDUCTIVITY     11.8189  11.8599  11.9010  11.9421  11.3699  11.4100  11.4502  11.4904
 PRANDTL NUMBER    0.7037   0.7037   0.7036   0.7036   0.7041   0.7040   0.7040   0.7040

 MOLE FRACTIONS

 *H               0.00705  0.00727  0.00750  0.00774  0.00463  0.00479  0.00496  0.00512
 *H2              0.99295  0.99273  0.99250  0.99226  0.99537  0.99521  0.99504  0.99488

  * THERMODYNAMIC PROPERTIES FITTED TO 20000.K

 NOTE. WEIGHT FRACTION OF FUEL IN TOTAL FUELS AND OF OXIDANT IN TOTAL OXIDANTS









               THERMODYNAMIC EQUILIBRIUM PROPERTIES AT ASSIGNED

                           TEMPERATURE AND PRESSURE

 CASE =                

             REACTANT                    WT FRACTION      ENERGY      TEMP
                                          (SEE NOTE)     KJ/KG-MOL      K  
             H2                           1.0000000         0.000      0.000

 O/F=    0.00000  %FUEL=100.000000  R,EQ.RATIO= 0.000000  PHI,EQ.RATIO= 0.000000

 THERMODYNAMIC PROPERTIES

 P, BAR            440.00   440.00   440.00   440.00   440.00   440.00   440.00   440.00
 T, K             2890.00  2900.00  2910.00  2920.00  2930.00  2940.00  2950.00  2960.00
 RHO, KG/CU M    3.6816 0 3.6685 0 3.6556 0 3.6427 0 3.6300 0 3.6173 0 3.6046 0 3.5921 0
 H, KJ/KG         42604.2  42807.3  43011.0  43215.3  43420.4  43626.1  43832.5  44039.6
 U, KJ/KG         30652.7  30813.4  30974.6  31136.5  31299.0  31462.2  31626.0  31790.4
 G, KJ/KG       -174395.1-175146.3-175898.2-176650.9-177404.2-178158.2-178912.9-179668.3
 S, KJ/(KG)(K)    75.0863  75.1564  75.2265  75.2966  75.3667  75.4368  75.5069  75.5770

 M, (1/n)           2.011    2.010    2.010    2.010    2.010    2.010    2.009    2.009
 (dLV/dLP)t      -1.00132 -1.00137 -1.00141 -1.00146 -1.00151 -1.00156 -1.00161 -1.00166
 (dLV/dLT)p        1.0253   1.0261   1.0268   1.0276   1.0284   1.0293   1.0301   1.0310
 Cp, KJ/(KG)(K)   20.2720  20.3370  20.4029  20.4698  20.5377  20.6065  20.6764  20.7472
 GAMMAs            1.2709   1.2702   1.2696   1.2689   1.2683   1.2677   1.2670   1.2664
 SON VEL,M/SEC     3897.2   3903.2   3909.1   3915.0   3920.9   3926.8   3932.7   3938.5

 TRANSPORT PROPERTIES (GASES ONLY)
   CONDUCTIVITY IN UNITS OF MILLIWATTS/(CM)(K)

 VISC,MILLIPOISE  0.44422  0.44546  0.44672  0.44797  0.44922  0.45048  0.45173  0.45299

  WITH EQUILIBRIUM REACTIONS

 Cp, KJ/(KG)(K)   20.2720  20.3370  20.4029  20.4698  20.5377  20.6065  20.6764  20.7472
 CONDUCTIVITY     14.0093  14.1229  14.2381  14.3551  14.4737  14.5941  14.7162  14.8402
 PRANDTL NUMBER    0.6428   0.6415   0.6401   0.6388   0.6374   0.6361   0.6347   0.6333

  WITH FROZEN REACTIONS

 Cp, KJ/(KG)(K)   18.2733  18.2851  18.2969  18.3087  18.3204  18.3321  18.3437  18.3553
 CONDUCTIVITY     11.5308  11.5712  11.6116  11.6521  11.6927  11.7334  11.7741  11.8149
 PRANDTL NUMBER    0.7040   0.7039   0.7039   0.7039   0.7039   0.7038   0.7038   0.7038

 MOLE FRACTIONS

 *H               0.00530  0.00547  0.00565  0.00584  0.00603  0.00623  0.00643  0.00664
 *H2              0.99470  0.99453  0.99435  0.99416  0.99397  0.99377  0.99357  0.99336

  * THERMODYNAMIC PROPERTIES FITTED TO 20000.K

 NOTE. WEIGHT FRACTION OF FUEL IN TOTAL FUELS AND OF OXIDANT IN TOTAL OXIDANTS









               THERMODYNAMIC EQUILIBRIUM PROPERTIES AT ASSIGNED

                           TEMPERATURE AND PRESSURE

 CASE =                

             REACTANT                    WT FRACTION      ENERGY      TEMP
                                          (SEE NOTE)     KJ/KG-MOL      K  
             H2                           1.0000000         0.000      0.000

 O/F=    0.00000  %FUEL=100.000000  R,EQ.RATIO= 0.000000  PHI,EQ.RATIO= 0.000000

 THERMODYNAMIC PROPERTIES

 P, BAR            440.00   440.00   440.00   490.00   490.00   490.00   490.00   490.00
 T, K             2970.00  2980.00  2990.00  2850.00  2860.00  2870.00  2880.00  2890.00
 RHO, KG/CU M    3.5796 0 3.5672 0 3.5549 0 4.1593 0 4.1445 0 4.1297 0 4.1151 0 4.1005 0
 H, KJ/KG         44247.4  44456.0  44665.3  41770.7  41970.3  42170.4  42371.2  42572.5
 U, KJ/KG         31955.6  32121.4  32287.9  29990.0  30147.3  30305.2  30463.7  30622.7
 G, KJ/KG       -180424.5-181181.3-181938.8-170129.3-170873.1-171617.7-172362.9-173108.9
 S, KJ/(KG)(K)    75.6471  75.7172  75.7873  74.3509  74.4208  74.4906  74.5604  74.6302

 M, (1/n)           2.009    2.009    2.009    2.011    2.011    2.011    2.011    2.011
 (dLV/dLP)t      -1.00171 -1.00177 -1.00182 -1.00110 -1.00114 -1.00117 -1.00121 -1.00125
 (dLV/dLT)p        1.0318   1.0327   1.0337   1.0213   1.0219   1.0226   1.0233   1.0240
 Cp, KJ/(KG)(K)   20.8190  20.8919  20.9658  19.9271  19.9858  20.0453  20.1057  20.1670
 GAMMAs            1.2657   1.2651   1.2644   1.2743   1.2737   1.2731   1.2724   1.2718
 SON VEL,M/SEC     3944.4   3950.2   3956.1   3874.5   3880.5   3886.5   3892.5   3898.5

 TRANSPORT PROPERTIES (GASES ONLY)
   CONDUCTIVITY IN UNITS OF MILLIWATTS/(CM)(K)

 VISC,MILLIPOISE  0.45425  0.45551  0.45678  0.43917  0.44041  0.44165  0.44290  0.44414

  WITH EQUILIBRIUM REACTIONS

 Cp, KJ/(KG)(K)   20.8190  20.8919  20.9658  19.9271  19.9858  20.0453  20.1057  20.1670
 CONDUCTIVITY     14.9659  15.0934  15.2227  13.4538  13.5573  13.6624  13.7690  13.8771
 PRANDTL NUMBER    0.6319   0.6305   0.6291   0.6505   0.6492   0.6480   0.6467   0.6455

  WITH FROZEN REACTIONS

 Cp, KJ/(KG)(K)   18.3669  18.3785  18.3900  18.2253  18.2372  18.2492  18.2611  18.2729
 CONDUCTIVITY     11.8557  11.8966  11.9376  11.3675  11.4075  11.4477  11.4878  11.5281
 PRANDTL NUMBER    0.7037   0.7037   0.7037   0.7041   0.7041   0.7041   0.7040   0.7040

 MOLE FRACTIONS

 *H               0.00685  0.00706  0.00728  0.00439  0.00454  0.00470  0.00486  0.00502
 *H2              0.99315  0.99294  0.99272  0.99561  0.99546  0.99530  0.99514  0.99498

  * THERMODYNAMIC PROPERTIES FITTED TO 20000.K

 NOTE. WEIGHT FRACTION OF FUEL IN TOTAL FUELS AND OF OXIDANT IN TOTAL OXIDANTS









               THERMODYNAMIC EQUILIBRIUM PROPERTIES AT ASSIGNED

                           TEMPERATURE AND PRESSURE

 CASE =                

             REACTANT                    WT FRACTION      ENERGY      TEMP
                                          (SEE NOTE)     KJ/KG-MOL      K  
             H2                           1.0000000         0.000      0.000

 O/F=    0.00000  %FUEL=100.000000  R,EQ.RATIO= 0.000000  PHI,EQ.RATIO= 0.000000

 THERMODYNAMIC PROPERTIES

 P, BAR            490.00   490.00   490.00   490.00   490.00   490.00   490.00   490.00
 T, K             2900.00  2910.00  2920.00  2930.00  2940.00  2950.00  2960.00  2970.00
 RHO, KG/CU M    4.0860 0 4.0716 0 4.0573 0 4.0431 0 4.0290 0 4.0149 0 4.0010 0 3.9871 0
 H, KJ/KG         42774.5  42977.1  43180.4  43384.2  43588.8  43794.0  43999.9  44206.4
 U, KJ/KG         30782.3  30942.6  31103.4  31264.8  31426.8  31589.5  31752.8  31916.8
 G, KJ/KG       -173855.5-174602.9-175350.9-176099.7-176849.1-177599.2-178350.1-179101.6
 S, KJ/(KG)(K)    74.7000  74.7698  74.8395  74.9092  74.9789  75.0486  75.1182  75.1879

 M, (1/n)           2.011    2.010    2.010    2.010    2.010    2.010    2.010    2.009
 (dLV/dLP)t      -1.00130 -1.00134 -1.00138 -1.00143 -1.00148 -1.00152 -1.00157 -1.00162
 (dLV/dLT)p        1.0247   1.0254   1.0262   1.0269   1.0277   1.0285   1.0293   1.0302
 Cp, KJ/(KG)(K)   20.2292  20.2923  20.3563  20.4212  20.4870  20.5538  20.6215  20.6902
 GAMMAs            1.2712   1.2706   1.2700   1.2693   1.2687   1.2681   1.2675   1.2668
 SON VEL,M/SEC     3904.4   3910.4   3916.3   3922.2   3928.1   3934.0   3939.9   3945.7

 TRANSPORT PROPERTIES (GASES ONLY)
   CONDUCTIVITY IN UNITS OF MILLIWATTS/(CM)(K)

 VISC,MILLIPOISE  0.44539  0.44664  0.44789  0.44914  0.45039  0.45165  0.45290  0.45416

  WITH EQUILIBRIUM REACTIONS

 Cp, KJ/(KG)(K)   20.2292  20.2923  20.3563  20.4212  20.4870  20.5538  20.6215  20.6902
 CONDUCTIVITY     13.9867  14.0980  14.2109  14.3253  14.4415  14.5592  14.6787  14.7999
 PRANDTL NUMBER    0.6442   0.6429   0.6416   0.6403   0.6389   0.6376   0.6363   0.6349

  WITH FROZEN REACTIONS

 Cp, KJ/(KG)(K)   18.2848  18.2966  18.3083  18.3200  18.3317  18.3433  18.3549  18.3665
 CONDUCTIVITY     11.5684  11.6087  11.6491  11.6896  11.7301  11.7707  11.8114  11.8521
 PRANDTL NUMBER    0.7040   0.7040   0.7039   0.7039   0.7039   0.7038   0.7038   0.7038

 MOLE FRACTIONS

 *H               0.00519  0.00536  0.00554  0.00572  0.00590  0.00609  0.00629  0.00649
 *H2              0.99481  0.99464  0.99446  0.99428  0.99410  0.99391  0.99371  0.99351

  * THERMODYNAMIC PROPERTIES FITTED TO 20000.K

 NOTE. WEIGHT FRACTION OF FUEL IN TOTAL FUELS AND OF OXIDANT IN TOTAL OXIDANTS









               THERMODYNAMIC EQUILIBRIUM PROPERTIES AT ASSIGNED

                           TEMPERATURE AND PRESSURE

 CASE =                

             REACTANT                    WT FRACTION      ENERGY      TEMP
                                          (SEE NOTE)     KJ/KG-MOL      K  
             H2                           1.0000000         0.000      0.000

 O/F=    0.00000  %FUEL=100.000000  R,EQ.RATIO= 0.000000  PHI,EQ.RATIO= 0.000000

 THERMODYNAMIC PROPERTIES

 P, BAR            490.00   490.00   540.00   540.00   540.00   540.00   540.00   540.00
 T, K             2980.00  2990.00  2850.00  2860.00  2870.00  2880.00  2890.00  2900.00
 RHO, KG/CU M    3.9733 0 3.9596 0 4.5842 0 4.5679 0 4.5516 0 4.5355 0 4.5194 0 4.5035 0
 H, KJ/KG         44413.7  44621.6  41747.0  41945.7  42145.0  42344.9  42545.4  42746.4
 U, KJ/KG         32081.4  32246.6  29967.5  30124.0  30281.1  30438.8  30597.0  30755.7
 G, KJ/KG       -179853.8-180606.7-168984.7-169724.4-170464.9-171206.0-171947.8-172690.4
 S, KJ/(KG)(K)    75.2575  75.3272  73.9409  74.0105  74.0801  74.1496  74.2191  74.2886

 M, (1/n)           2.009    2.009    2.012    2.012    2.011    2.011    2.011    2.011
 (dLV/dLP)t      -1.00167 -1.00173 -1.00105 -1.00108 -1.00112 -1.00116 -1.00120 -1.00124
 (dLV/dLT)p        1.0310   1.0319   1.0203   1.0209   1.0215   1.0222   1.0228   1.0235
 Cp, KJ/(KG)(K)   20.7598  20.8304  19.8462  19.9026  19.9599  20.0180  20.0769  20.1367
 GAMMAs            1.2662   1.2656   1.2751   1.2745   1.2739   1.2733   1.2727   1.2721
 SON VEL,M/SEC     3951.6   3957.5   3875.5   3881.6   3887.6   3893.5   3899.5   3905.5

 TRANSPORT PROPERTIES (GASES ONLY)
   CONDUCTIVITY IN UNITS OF MILLIWATTS/(CM)(K)

 VISC,MILLIPOISE  0.45541  0.45667  0.43911  0.44035  0.44159  0.44284  0.44408  0.44533

  WITH EQUILIBRIUM REACTIONS

 Cp, KJ/(KG)(K)   20.7598  20.8304  19.8462  19.9026  19.9599  20.0180  20.0769  20.1367
 CONDUCTIVITY     14.9228  15.0474  13.3531  13.4535  13.5554  13.6588  13.7636  13.8699
 PRANDTL NUMBER    0.6335   0.6322   0.6526   0.6514   0.6502   0.6490   0.6478   0.6465

  WITH FROZEN REACTIONS

 Cp, KJ/(KG)(K)   18.3780  18.3895  18.2250  18.2370  18.2489  18.2608  18.2727  18.2845
 CONDUCTIVITY     11.8929  11.9338  11.3655  11.4054  11.4455  11.4856  11.5257  11.5659
 PRANDTL NUMBER    0.7037   0.7037   0.7041   0.7041   0.7041   0.7041   0.7040   0.7040

 MOLE FRACTIONS

 *H               0.00669  0.00690  0.00418  0.00433  0.00448  0.00463  0.00478  0.00494
 *H2              0.99331  0.99310  0.99582  0.99567  0.99552  0.99537  0.99522  0.99506

  * THERMODYNAMIC PROPERTIES FITTED TO 20000.K

 NOTE. WEIGHT FRACTION OF FUEL IN TOTAL FUELS AND OF OXIDANT IN TOTAL OXIDANTS









               THERMODYNAMIC EQUILIBRIUM PROPERTIES AT ASSIGNED

                           TEMPERATURE AND PRESSURE

 CASE =                

             REACTANT                    WT FRACTION      ENERGY      TEMP
                                          (SEE NOTE)     KJ/KG-MOL      K  
             H2                           1.0000000         0.000      0.000

 O/F=    0.00000  %FUEL=100.000000  R,EQ.RATIO= 0.000000  PHI,EQ.RATIO= 0.000000

 THERMODYNAMIC PROPERTIES

 P, BAR            540.00   540.00   540.00   540.00   540.00   540.00   540.00   540.00
 T, K             2910.00  2920.00  2930.00  2940.00  2950.00  2960.00  2970.00  2980.00
 RHO, KG/CU M    4.4876 0 4.4719 0 4.4563 0 4.4407 0 4.4252 0 4.4099 0 4.3946 0 4.3794 0
 H, KJ/KG         42948.1  43150.4  43353.3  43556.8  43761.0  43965.8  44171.2  44377.4
 U, KJ/KG         30915.1  31075.0  31235.5  31396.6  31558.3  31720.6  31883.5  32047.0
 G, KJ/KG       -173433.6-174177.5-174922.2-175667.5-176413.5-177160.2-177907.6-178655.7
 S, KJ/(KG)(K)    74.3580  74.4274  74.4967  74.5661  74.6354  74.7047  74.7740  74.8433

 M, (1/n)           2.011    2.011    2.010    2.010    2.010    2.010    2.010    2.009
 (dLV/dLP)t      -1.00128 -1.00132 -1.00136 -1.00141 -1.00145 -1.00150 -1.00155 -1.00159
 (dLV/dLT)p        1.0242   1.0249   1.0257   1.0264   1.0272   1.0280   1.0288   1.0296
 Cp, KJ/(KG)(K)   20.1973  20.2588  20.3212  20.3845  20.4486  20.5137  20.5796  20.6465
 GAMMAs            1.2714   1.2708   1.2702   1.2696   1.2690   1.2684   1.2678   1.2672
 SON VEL,M/SEC     3911.4   3917.4   3923.3   3929.2   3935.1   3941.0   3946.9   3952.8

 TRANSPORT PROPERTIES (GASES ONLY)
   CONDUCTIVITY IN UNITS OF MILLIWATTS/(CM)(K)

 VISC,MILLIPOISE  0.44657  0.44782  0.44907  0.45032  0.45157  0.45282  0.45408  0.45533

  WITH EQUILIBRIUM REACTIONS

 Cp, KJ/(KG)(K)   20.1973  20.2588  20.3212  20.3845  20.4486  20.5137  20.5796  20.6465
 CONDUCTIVITY     13.9778  14.0871  14.1980  14.3105  14.4245  14.5402  14.6575  14.7764
 PRANDTL NUMBER    0.6453   0.6440   0.6427   0.6415   0.6402   0.6389   0.6375   0.6362

  WITH FROZEN REACTIONS

 Cp, KJ/(KG)(K)   18.2963  18.3080  18.3197  18.3314  18.3430  18.3546  18.3662  18.3777
 CONDUCTIVITY     11.6062  11.6465  11.6869  11.7274  11.7679  11.8084  11.8491  11.8898
 PRANDTL NUMBER    0.7040   0.7040   0.7039   0.7039   0.7039   0.7038   0.7038   0.7038

 MOLE FRACTIONS

 *H               0.00511  0.00527  0.00545  0.00562  0.00581  0.00599  0.00618  0.00638
 *H2              0.99489  0.99473  0.99455  0.99438  0.99419  0.99401  0.99382  0.99362

  * THERMODYNAMIC PROPERTIES FITTED TO 20000.K

 NOTE. WEIGHT FRACTION OF FUEL IN TOTAL FUELS AND OF OXIDANT IN TOTAL OXIDANTS









               THERMODYNAMIC EQUILIBRIUM PROPERTIES AT ASSIGNED

                           TEMPERATURE AND PRESSURE

 CASE =                

             REACTANT                    WT FRACTION      ENERGY      TEMP
                                          (SEE NOTE)     KJ/KG-MOL      K  
             H2                           1.0000000         0.000      0.000

 O/F=    0.00000  %FUEL=100.000000  R,EQ.RATIO= 0.000000  PHI,EQ.RATIO= 0.000000

 THERMODYNAMIC PROPERTIES

 P, BAR            540.00   600.00   600.00   600.00   600.00   600.00   600.00   600.00
 T, K             2990.00  2850.00  2860.00  2870.00  2880.00  2890.00  2900.00  2910.00
 RHO, KG/CU M    4.3644 0 5.0941 0 5.0760 0 5.0579 0 5.0400 0 5.0222 0 5.0045 0 4.9869 0
 H, KJ/KG         44584.2  41722.5  41920.4  42118.8  42317.8  42517.4  42717.5  42918.2
 U, KJ/KG         32211.2  29944.2  30100.0  30256.3  30413.1  30570.4  30728.3  30886.7
 G, KJ/KG       -179404.4-167743.7-168478.9-169214.9-169951.6-170689.0-171427.1-172165.9
 S, KJ/(KG)(K)    74.9126  73.4969  73.5662  73.6354  73.7047  73.7738  73.8430  73.9121

 M, (1/n)           2.009    2.012    2.012    2.012    2.011    2.011    2.011    2.011
 (dLV/dLP)t      -1.00164 -1.00099 -1.00103 -1.00106 -1.00110 -1.00113 -1.00117 -1.00121
 (dLV/dLT)p        1.0304   1.0192   1.0198   1.0204   1.0210   1.0217   1.0223   1.0230
 Cp, KJ/(KG)(K)   20.7143  19.7627  19.8169  19.8718  19.9275  19.9840  20.0413  20.0995
 GAMMAs            1.2666   1.2759   1.2753   1.2747   1.2741   1.2735   1.2729   1.2724
 SON VEL,M/SEC     3958.7   3876.6   3882.6   3888.6   3894.6   3900.6   3906.6   3912.6

 TRANSPORT PROPERTIES (GASES ONLY)
   CONDUCTIVITY IN UNITS OF MILLIWATTS/(CM)(K)

 VISC,MILLIPOISE  0.45659  0.43906  0.44030  0.44154  0.44278  0.44402  0.44526  0.44650

  WITH EQUILIBRIUM REACTIONS

 Cp, KJ/(KG)(K)   20.7143  19.7627  19.8169  19.8718  19.9275  19.9840  20.0413  20.0995
 CONDUCTIVITY     14.8970  13.2492  13.3465  13.4452  13.5452  13.6466  13.7495  13.8538
 PRANDTL NUMBER    0.6349   0.6549   0.6538   0.6526   0.6514   0.6502   0.6490   0.6478

  WITH FROZEN REACTIONS

 Cp, KJ/(KG)(K)   18.3892  18.2247  18.2367  18.2486  18.2605  18.2724  18.2842  18.2960
 CONDUCTIVITY     11.9305  11.3634  11.4033  11.4432  11.4833  11.5233  11.5635  11.6036
 PRANDTL NUMBER    0.7038   0.7042   0.7041   0.7041   0.7041   0.7041   0.7040   0.7040

 MOLE FRACTIONS

 *H               0.00658  0.00397  0.00411  0.00425  0.00439  0.00454  0.00469  0.00484
 *H2              0.99342  0.99603  0.99589  0.99575  0.99561  0.99546  0.99531  0.99516

  * THERMODYNAMIC PROPERTIES FITTED TO 20000.K

 NOTE. WEIGHT FRACTION OF FUEL IN TOTAL FUELS AND OF OXIDANT IN TOTAL OXIDANTS









               THERMODYNAMIC EQUILIBRIUM PROPERTIES AT ASSIGNED

                           TEMPERATURE AND PRESSURE

 CASE =                

             REACTANT                    WT FRACTION      ENERGY      TEMP
                                          (SEE NOTE)     KJ/KG-MOL      K  
             H2                           1.0000000         0.000      0.000

 O/F=    0.00000  %FUEL=100.000000  R,EQ.RATIO= 0.000000  PHI,EQ.RATIO= 0.000000

 THERMODYNAMIC PROPERTIES

 P, BAR            600.00   600.00   600.00   600.00   600.00   600.00   600.00   600.00
 T, K             2920.00  2930.00  2940.00  2950.00  2960.00  2970.00  2980.00  2990.00
 RHO, KG/CU M    4.9695 0 4.9521 0 4.9348 0 4.9177 0 4.9006 0 4.8837 0 4.8668 0 4.8501 0
 H, KJ/KG         43119.5  43321.4  43523.8  43726.9  43930.6  44135.0  44340.0  44545.6
 U, KJ/KG         31045.7  31205.2  31365.3  31526.0  31687.3  31849.2  32011.6  32174.7
 G, KJ/KG       -172905.4-173645.5-174386.4-175127.9-175870.1-176613.0-177356.6-178100.9
 S, KJ/(KG)(K)    73.9811  74.0501  74.1191  74.1881  74.2570  74.3259  74.3948  74.4637

 M, (1/n)           2.011    2.011    2.011    2.010    2.010    2.010    2.010    2.010
 (dLV/dLP)t      -1.00125 -1.00129 -1.00133 -1.00138 -1.00142 -1.00147 -1.00151 -1.00156
 (dLV/dLT)p        1.0237   1.0244   1.0251   1.0258   1.0265   1.0273   1.0281   1.0288
 Cp, KJ/(KG)(K)   20.1584  20.2182  20.2788  20.3402  20.4025  20.4657  20.5297  20.5946
 GAMMAs            1.2718   1.2712   1.2706   1.2700   1.2694   1.2688   1.2682   1.2676
 SON VEL,M/SEC     3918.5   3924.5   3930.4   3936.3   3942.3   3948.2   3954.0   3959.9

 TRANSPORT PROPERTIES (GASES ONLY)
   CONDUCTIVITY IN UNITS OF MILLIWATTS/(CM)(K)

 VISC,MILLIPOISE  0.44775  0.44899  0.45024  0.45149  0.45274  0.45399  0.45524  0.45650

  WITH EQUILIBRIUM REACTIONS

 Cp, KJ/(KG)(K)   20.1584  20.2182  20.2788  20.3402  20.4025  20.4657  20.5297  20.5946
 CONDUCTIVITY     13.9595  14.0667  14.1754  14.2856  14.3974  14.5106  14.6255  14.7419
 PRANDTL NUMBER    0.6466   0.6453   0.6441   0.6428   0.6416   0.6403   0.6390   0.6377

  WITH FROZEN REACTIONS

 Cp, KJ/(KG)(K)   18.3077  18.3194  18.3310  18.3427  18.3542  18.3658  18.3773  18.3888
 CONDUCTIVITY     11.6439  11.6842  11.7245  11.7649  11.8054  11.8459  11.8865  11.9272
 PRANDTL NUMBER    0.7040   0.7040   0.7039   0.7039   0.7039   0.7039   0.7038   0.7038

 MOLE FRACTIONS

 *H               0.00500  0.00517  0.00534  0.00551  0.00568  0.00587  0.00605  0.00624
 *H2              0.99500  0.99483  0.99466  0.99449  0.99432  0.99413  0.99395  0.99376

  * THERMODYNAMIC PROPERTIES FITTED TO 20000.K

 NOTE. WEIGHT FRACTION OF FUEL IN TOTAL FUELS AND OF OXIDANT IN TOTAL OXIDANTS









               THERMODYNAMIC EQUILIBRIUM PROPERTIES AT ASSIGNED

                           TEMPERATURE AND PRESSURE

 CASE =                

             REACTANT                    WT FRACTION      ENERGY      TEMP
                                          (SEE NOTE)     KJ/KG-MOL      K  
             H2                           1.0000000         0.000      0.000

 O/F=    0.00000  %FUEL=100.000000  R,EQ.RATIO= 0.000000  PHI,EQ.RATIO= 0.000000

 THERMODYNAMIC PROPERTIES

 P, BAR            670.00   670.00   670.00   670.00   670.00   670.00   670.00   670.00
 T, K             2850.00  2860.00  2870.00  2880.00  2890.00  2900.00  2910.00  2920.00
 RHO, KG/CU M    5.6891 0 5.6688 0 5.6487 0 5.6287 0 5.6088 0 5.5891 0 5.5695 0 5.5500 0
 H, KJ/KG         41698.2  41895.2  42092.8  42290.9  42489.6  42688.7  42888.5  43088.8
 U, KJ/KG         29921.2  30076.2  30231.6  30387.6  30544.1  30701.1  30858.6  31016.6
 G, KJ/KG       -166444.0-167174.7-167906.0-168638.1-169370.8-170104.2-170838.3-171573.1
 S, KJ/(KG)(K)    73.0323  73.1014  73.1703  73.2392  73.3081  73.3769  73.4456  73.5144

 M, (1/n)           2.012    2.012    2.012    2.012    2.012    2.011    2.011    2.011
 (dLV/dLP)t      -1.00094 -1.00097 -1.00100 -1.00104 -1.00107 -1.00111 -1.00115 -1.00118
 (dLV/dLT)p        1.0182   1.0187   1.0193   1.0199   1.0205   1.0211   1.0218   1.0224
 Cp, KJ/(KG)(K)   19.6799  19.7318  19.7844  19.8378  19.8919  19.9467  20.0024  20.0588
 GAMMAs            1.2767   1.2761   1.2756   1.2750   1.2744   1.2738   1.2733   1.2727
 SON VEL,M/SEC     3877.6   3883.7   3889.7   3895.7   3901.7   3907.7   3913.7   3919.7

 TRANSPORT PROPERTIES (GASES ONLY)
   CONDUCTIVITY IN UNITS OF MILLIWATTS/(CM)(K)

 VISC,MILLIPOISE  0.43900  0.44024  0.44148  0.44272  0.44395  0.44519  0.44644  0.44768

  WITH EQUILIBRIUM REACTIONS

 Cp, KJ/(KG)(K)   19.6799  19.7318  19.7844  19.8378  19.8919  19.9467  20.0024  20.0588
 CONDUCTIVITY     13.1461  13.2402  13.3357  13.4324  13.5305  13.6299  13.7307  13.8329
 PRANDTL NUMBER    0.6572   0.6561   0.6550   0.6538   0.6527   0.6515   0.6503   0.6492

  WITH FROZEN REACTIONS

 Cp, KJ/(KG)(K)   18.2245  18.2364  18.2484  18.2602  18.2721  18.2839  18.2956  18.3074
 CONDUCTIVITY     11.3613  11.4011  11.4410  11.4810  11.5209  11.5610  11.6011  11.6412
 PRANDTL NUMBER    0.7042   0.7042   0.7042   0.7041   0.7041   0.7041   0.7041   0.7040

 MOLE FRACTIONS

 *H               0.00376  0.00389  0.00402  0.00415  0.00429  0.00444  0.00459  0.00474
 *H2              0.99624  0.99611  0.99598  0.99585  0.99571  0.99556  0.99541  0.99526

  * THERMODYNAMIC PROPERTIES FITTED TO 20000.K

 NOTE. WEIGHT FRACTION OF FUEL IN TOTAL FUELS AND OF OXIDANT IN TOTAL OXIDANTS









               THERMODYNAMIC EQUILIBRIUM PROPERTIES AT ASSIGNED

                           TEMPERATURE AND PRESSURE

 CASE =                

             REACTANT                    WT FRACTION      ENERGY      TEMP
                                          (SEE NOTE)     KJ/KG-MOL      K  
             H2                           1.0000000         0.000      0.000

 O/F=    0.00000  %FUEL=100.000000  R,EQ.RATIO= 0.000000  PHI,EQ.RATIO= 0.000000

 THERMODYNAMIC PROPERTIES

 P, BAR            670.00   670.00   670.00   670.00   670.00   670.00   670.00   740.00
 T, K             2930.00  2940.00  2950.00  2960.00  2970.00  2980.00  2990.00  2850.00
 RHO, KG/CU M    5.5306 0 5.5113 0 5.4922 0 5.4732 0 5.4543 0 5.4355 0 5.4169 0 6.2840 0
 H, KJ/KG         43289.7  43491.1  43693.1  43895.8  44099.0  44302.8  44507.3  41677.4
 U, KJ/KG         31175.2  31334.4  31494.1  31654.3  31815.1  31976.5  32138.5  29901.5
 G, KJ/KG       -172308.6-173044.8-173781.7-174519.2-175257.4-175996.3-176735.9-165273.8
 S, KJ/(KG)(K)    73.5830  73.6517  73.7203  73.7888  73.8574  73.9259  73.9944  72.6144

 M, (1/n)           2.011    2.011    2.011    2.010    2.010    2.010    2.010    2.012
 (dLV/dLP)t      -1.00122 -1.00126 -1.00130 -1.00135 -1.00139 -1.00143 -1.00148 -1.00089
 (dLV/dLT)p        1.0231   1.0237   1.0244   1.0251   1.0258   1.0266   1.0273   1.0173
 Cp, KJ/(KG)(K)   20.1159  20.1739  20.2327  20.2922  20.3526  20.4138  20.4758  19.6091
 GAMMAs            1.2721   1.2715   1.2709   1.2704   1.2698   1.2692   1.2686   1.2774
 SON VEL,M/SEC     3925.7   3931.6   3937.6   3943.5   3949.4   3955.3   3961.2   3878.5

 TRANSPORT PROPERTIES (GASES ONLY)
   CONDUCTIVITY IN UNITS OF MILLIWATTS/(CM)(K)

 VISC,MILLIPOISE  0.44892  0.45017  0.45141  0.45266  0.45391  0.45516  0.45641  0.43896

  WITH EQUILIBRIUM REACTIONS

 Cp, KJ/(KG)(K)   20.1159  20.1739  20.2327  20.2922  20.3526  20.4138  20.4758  19.6091
 CONDUCTIVITY     13.9364  14.0414  14.1477  14.2556  14.3648  14.4756  14.5879  13.0580
 PRANDTL NUMBER    0.6480   0.6468   0.6456   0.6443   0.6431   0.6419   0.6406   0.6592

  WITH FROZEN REACTIONS

 Cp, KJ/(KG)(K)   18.3191  18.3307  18.3423  18.3539  18.3654  18.3769  18.3884  18.2243
 CONDUCTIVITY     11.6814  11.7217  11.7620  11.8024  11.8428  11.8833  11.9238  11.3596
 PRANDTL NUMBER    0.7040   0.7040   0.7040   0.7039   0.7039   0.7039   0.7039   0.7042

 MOLE FRACTIONS

 *H               0.00489  0.00505  0.00521  0.00538  0.00555  0.00573  0.00591  0.00357
 *H2              0.99511  0.99495  0.99479  0.99462  0.99445  0.99427  0.99409  0.99642

  * THERMODYNAMIC PROPERTIES FITTED TO 20000.K

 NOTE. WEIGHT FRACTION OF FUEL IN TOTAL FUELS AND OF OXIDANT IN TOTAL OXIDANTS









               THERMODYNAMIC EQUILIBRIUM PROPERTIES AT ASSIGNED

                           TEMPERATURE AND PRESSURE

 CASE =                

             REACTANT                    WT FRACTION      ENERGY      TEMP
                                          (SEE NOTE)     KJ/KG-MOL      K  
             H2                           1.0000000         0.000      0.000

 O/F=    0.00000  %FUEL=100.000000  R,EQ.RATIO= 0.000000  PHI,EQ.RATIO= 0.000000

 THERMODYNAMIC PROPERTIES

 P, BAR            740.00   740.00   740.00   740.00   740.00   740.00   740.00   740.00
 T, K             2860.00  2870.00  2880.00  2890.00  2900.00  2910.00  2920.00  2930.00
 RHO, KG/CU M    6.2617 0 6.2395 0 6.2174 0 6.1955 0 6.1737 0 6.1520 0 6.1305 0 6.1091 0
 H, KJ/KG         41873.7  42070.6  42267.9  42465.8  42664.2  42863.1  43062.6  43262.6
 U, KJ/KG         30055.8  30210.6  30365.8  30521.6  30677.8  30834.6  30991.8  31149.6
 G, KJ/KG       -166000.2-166727.4-167455.3-168183.8-168913.0-169643.0-170373.6-171104.9
 S, KJ/(KG)(K)    72.6832  72.7519  72.8206  72.8891  72.9577  73.0261  73.0946  73.1630

 M, (1/n)           2.012    2.012    2.012    2.012    2.012    2.011    2.011    2.011
 (dLV/dLP)t      -1.00092 -1.00096 -1.00099 -1.00102 -1.00106 -1.00109 -1.00113 -1.00116
 (dLV/dLT)p        1.0178   1.0184   1.0189   1.0195   1.0201   1.0207   1.0213   1.0219
 Cp, KJ/(KG)(K)   19.6591  19.7097  19.7610  19.8131  19.8659  19.9194  19.9736  20.0286
 GAMMAs            1.2769   1.2763   1.2757   1.2752   1.2746   1.2741   1.2735   1.2729
 SON VEL,M/SEC     3884.6   3890.6   3896.7   3902.7   3908.7   3914.7   3920.7   3926.7

 TRANSPORT PROPERTIES (GASES ONLY)
   CONDUCTIVITY IN UNITS OF MILLIWATTS/(CM)(K)

 VISC,MILLIPOISE  0.44019  0.44143  0.44266  0.44390  0.44514  0.44638  0.44762  0.44886

  WITH EQUILIBRIUM REACTIONS

 Cp, KJ/(KG)(K)   19.6591  19.7097  19.7610  19.8131  19.8659  19.9194  19.9736  20.0286
 CONDUCTIVITY     13.1494  13.2421  13.3361  13.4313  13.5278  13.6255  13.7246  13.8250
 PRANDTL NUMBER    0.6581   0.6570   0.6559   0.6548   0.6537   0.6526   0.6514   0.6503

  WITH FROZEN REACTIONS

 Cp, KJ/(KG)(K)   18.2362  18.2481  18.2600  18.2718  18.2836  18.2954  18.3071  18.3188
 CONDUCTIVITY     11.3993  11.4391  11.4790  11.5189  11.5589  11.5989  11.6390  11.6791
 PRANDTL NUMBER    0.7042   0.7042   0.7042   0.7041   0.7041   0.7041   0.7041   0.7040

 MOLE FRACTIONS

 *H               0.00370  0.00382  0.00395  0.00409  0.00422  0.00436  0.00451  0.00465
 *H2              0.99630  0.99618  0.99605  0.99591  0.99578  0.99564  0.99549  0.99535

  * THERMODYNAMIC PROPERTIES FITTED TO 20000.K

 NOTE. WEIGHT FRACTION OF FUEL IN TOTAL FUELS AND OF OXIDANT IN TOTAL OXIDANTS









               THERMODYNAMIC EQUILIBRIUM PROPERTIES AT ASSIGNED

                           TEMPERATURE AND PRESSURE

 CASE =                

             REACTANT                    WT FRACTION      ENERGY      TEMP
                                          (SEE NOTE)     KJ/KG-MOL      K  
             H2                           1.0000000         0.000      0.000

 O/F=    0.00000  %FUEL=100.000000  R,EQ.RATIO= 0.000000  PHI,EQ.RATIO= 0.000000

 THERMODYNAMIC PROPERTIES

 P, BAR            740.00   740.00   740.00   740.00   740.00   740.00   825.00   825.00
 T, K             2940.00  2950.00  2960.00  2970.00  2980.00  2990.00  2850.00  2860.00
 RHO, KG/CU M    6.0879 0 6.0668 0 6.0458 0 6.0250 0 6.0042 0 5.9836 0 7.0065 0 6.9816 0
 H, KJ/KG         43463.2  43664.3  43866.0  44068.2  44271.1  44474.5  41655.8  41851.4
 U, KJ/KG         31307.9  31466.7  31626.1  31786.0  31946.5  32107.5  29881.1  30034.6
 G, KJ/KG       -171836.8-172569.5-173302.8-174036.8-174771.5-175506.9-163993.4-164715.3
 S, KJ/(KG)(K)    73.2313  73.2996  73.3678  73.4361  73.5042  73.5724  72.1576  72.2261

 M, (1/n)           2.011    2.011    2.011    2.011    2.010    2.010    2.012    2.012
 (dLV/dLP)t      -1.00120 -1.00124 -1.00128 -1.00132 -1.00136 -1.00141 -1.00085 -1.00088
 (dLV/dLT)p        1.0226   1.0232   1.0239   1.0246   1.0253   1.0260   1.0164   1.0169
 Cp, KJ/(KG)(K)   20.0843  20.1407  20.1980  20.2560  20.3147  20.3743  19.5356  19.5835
 GAMMAs            1.2724   1.2718   1.2712   1.2706   1.2701   1.2695   1.2782   1.2776
 SON VEL,M/SEC     3932.7   3938.6   3944.5   3950.5   3956.4   3962.3   3879.5   3885.5

 TRANSPORT PROPERTIES (GASES ONLY)
   CONDUCTIVITY IN UNITS OF MILLIWATTS/(CM)(K)

 VISC,MILLIPOISE  0.45010  0.45135  0.45259  0.45384  0.45508  0.45633  0.43891  0.44014

  WITH EQUILIBRIUM REACTIONS

 Cp, KJ/(KG)(K)   20.0843  20.1407  20.1980  20.2560  20.3147  20.3743  19.5356  19.5835
 CONDUCTIVITY     13.9268  14.0299  14.1344  14.2402  14.3475  14.4562  12.9664  13.0551
 PRANDTL NUMBER    0.6491   0.6479   0.6468   0.6456   0.6444   0.6431   0.6613   0.6602

  WITH FROZEN REACTIONS

 Cp, KJ/(KG)(K)   18.3304  18.3420  18.3536  18.3651  18.3766  18.3881  18.2240  18.2360
 CONDUCTIVITY     11.7192  11.7595  11.7998  11.8401  11.8805  11.9209  11.3577  11.3974
 PRANDTL NUMBER    0.7040   0.7040   0.7040   0.7039   0.7039   0.7039   0.7042   0.7042

 MOLE FRACTIONS

 *H               0.00481  0.00496  0.00512  0.00528  0.00545  0.00562  0.00339  0.00350
 *H2              0.99519  0.99504  0.99488  0.99472  0.99455  0.99438  0.99661  0.99650

  * THERMODYNAMIC PROPERTIES FITTED TO 20000.K

 NOTE. WEIGHT FRACTION OF FUEL IN TOTAL FUELS AND OF OXIDANT IN TOTAL OXIDANTS









               THERMODYNAMIC EQUILIBRIUM PROPERTIES AT ASSIGNED

                           TEMPERATURE AND PRESSURE

 CASE =                

             REACTANT                    WT FRACTION      ENERGY      TEMP
                                          (SEE NOTE)     KJ/KG-MOL      K  
             H2                           1.0000000         0.000      0.000

 O/F=    0.00000  %FUEL=100.000000  R,EQ.RATIO= 0.000000  PHI,EQ.RATIO= 0.000000

 THERMODYNAMIC PROPERTIES

 P, BAR            825.00   825.00   825.00   825.00   825.00   825.00   825.00   825.00
 T, K             2870.00  2880.00  2890.00  2900.00  2910.00  2920.00  2930.00  2940.00
 RHO, KG/CU M    6.9569 0 6.9323 0 6.9078 0 6.8836 0 6.8595 0 6.8355 0 6.8117 0 6.7880 0
 H, KJ/KG         42047.5  42244.1  42441.1  42638.7  42836.8  43035.4  43234.5  43434.1
 U, KJ/KG         30188.7  30343.2  30498.2  30653.7  30809.6  30966.0  31123.0  31280.4
 G, KJ/KG       -165437.9-166161.2-166885.1-167609.8-168335.1-169061.1-169787.8-170515.2
 S, KJ/(KG)(K)    72.2946  72.3629  72.4312  72.4995  72.5677  72.6358  72.7039  72.7719

 M, (1/n)           2.012    2.012    2.012    2.012    2.012    2.012    2.011    2.011
 (dLV/dLP)t      -1.00091 -1.00094 -1.00097 -1.00100 -1.00103 -1.00107 -1.00110 -1.00114
 (dLV/dLT)p        1.0174   1.0179   1.0185   1.0190   1.0196   1.0202   1.0208   1.0214
 Cp, KJ/(KG)(K)   19.6321  19.6814  19.7313  19.7819  19.8332  19.8851  19.9378  19.9912
 GAMMAs            1.2771   1.2765   1.2760   1.2754   1.2749   1.2743   1.2738   1.2732
 SON VEL,M/SEC     3891.6   3897.7   3903.7   3909.7   3915.8   3921.8   3927.8   3933.7

 TRANSPORT PROPERTIES (GASES ONLY)
   CONDUCTIVITY IN UNITS OF MILLIWATTS/(CM)(K)

 VISC,MILLIPOISE  0.44137  0.44261  0.44384  0.44508  0.44632  0.44756  0.44879  0.45003

  WITH EQUILIBRIUM REACTIONS

 Cp, KJ/(KG)(K)   19.6321  19.6814  19.7313  19.7819  19.8332  19.8851  19.9378  19.9912
 CONDUCTIVITY     13.1449  13.2359  13.3282  13.4216  13.5162  13.6121  13.7093  13.8077
 PRANDTL NUMBER    0.6592   0.6581   0.6571   0.6560   0.6549   0.6538   0.6527   0.6516

  WITH FROZEN REACTIONS

 Cp, KJ/(KG)(K)   18.2479  18.2598  18.2716  18.2834  18.2951  18.3068  18.3185  18.3301
 CONDUCTIVITY     11.4372  11.4769  11.5168  11.5567  11.5966  11.6366  11.6766  11.7167
 PRANDTL NUMBER    0.7042   0.7042   0.7042   0.7041   0.7041   0.7041   0.7041   0.7041

 MOLE FRACTIONS

 *H               0.00362  0.00374  0.00387  0.00400  0.00413  0.00427  0.00441  0.00455
 *H2              0.99638  0.99626  0.99613  0.99600  0.99587  0.99573  0.99559  0.99545

  * THERMODYNAMIC PROPERTIES FITTED TO 20000.K

 NOTE. WEIGHT FRACTION OF FUEL IN TOTAL FUELS AND OF OXIDANT IN TOTAL OXIDANTS









               THERMODYNAMIC EQUILIBRIUM PROPERTIES AT ASSIGNED

                           TEMPERATURE AND PRESSURE

 CASE =                

             REACTANT                    WT FRACTION      ENERGY      TEMP
                                          (SEE NOTE)     KJ/KG-MOL      K  
             H2                           1.0000000         0.000      0.000

 O/F=    0.00000  %FUEL=100.000000  R,EQ.RATIO= 0.000000  PHI,EQ.RATIO= 0.000000

 THERMODYNAMIC PROPERTIES

 P, BAR            825.00   825.00   825.00   825.00   825.00   910.00   910.00   910.00
 T, K             2950.00  2960.00  2970.00  2980.00  2990.00  2850.00  2860.00  2870.00
 RHO, KG/CU M    6.7645 0 6.7412 0 6.7180 0 6.6949 0 6.6720 0 7.7290 0 7.7016 0 7.6743 0
 H, KJ/KG         43634.3  43835.0  44036.3  44238.1  44440.5  41637.4  41832.3  42027.7
 U, KJ/KG         31438.3  31596.8  31755.8  31915.3  32075.3  29863.5  30016.5  30170.0
 G, KJ/KG       -171243.3-171972.0-172701.4-173431.5-174162.3-162838.8-163556.6-164275.0
 S, KJ/(KG)(K)    72.8399  72.9078  72.9757  73.0435  73.1113  71.7460  71.8143  71.8825

 M, (1/n)           2.011    2.011    2.011    2.011    2.011    2.013    2.013    2.012
 (dLV/dLP)t      -1.00117 -1.00121 -1.00125 -1.00129 -1.00133 -1.00081 -1.00083 -1.00086
 (dLV/dLT)p        1.0220   1.0226   1.0233   1.0239   1.0246   1.0156   1.0161   1.0166
 Cp, KJ/(KG)(K)   20.0453  20.1001  20.1556  20.2119  20.2689  19.4727  19.5189  19.5657
 GAMMAs            1.2727   1.2721   1.2715   1.2710   1.2704   1.2788   1.2783   1.2777
 SON VEL,M/SEC     3939.7   3945.7   3951.6   3957.6   3963.5   3880.3   3886.4   3892.4

 TRANSPORT PROPERTIES (GASES ONLY)
   CONDUCTIVITY IN UNITS OF MILLIWATTS/(CM)(K)

 VISC,MILLIPOISE  0.45128  0.45252  0.45376  0.45501  0.45625  0.43887  0.44010  0.44133

  WITH EQUILIBRIUM REACTIONS

 Cp, KJ/(KG)(K)   20.0453  20.1001  20.1556  20.2119  20.2689  19.4727  19.5189  19.5657
 CONDUCTIVITY     13.9074  14.0084  14.1108  14.2144  14.3195  12.8880  12.9743  13.0617
 PRANDTL NUMBER    0.6504   0.6493   0.6481   0.6470   0.6458   0.6631   0.6621   0.6611

  WITH FROZEN REACTIONS

 Cp, KJ/(KG)(K)   18.3417  18.3533  18.3648  18.3763  18.3878  18.2238  18.2358  18.2477
 CONDUCTIVITY     11.7569  11.7971  11.8373  11.8776  11.9180  11.3562  11.3958  11.4355
 PRANDTL NUMBER    0.7040   0.7040   0.7040   0.7040   0.7039   0.7043   0.7043   0.7042

 MOLE FRACTIONS

 *H               0.00470  0.00485  0.00500  0.00516  0.00532  0.00322  0.00334  0.00345
 *H2              0.99530  0.99515  0.99500  0.99484  0.99468  0.99678  0.99666  0.99655

  * THERMODYNAMIC PROPERTIES FITTED TO 20000.K

 NOTE. WEIGHT FRACTION OF FUEL IN TOTAL FUELS AND OF OXIDANT IN TOTAL OXIDANTS









               THERMODYNAMIC EQUILIBRIUM PROPERTIES AT ASSIGNED

                           TEMPERATURE AND PRESSURE

 CASE =                

             REACTANT                    WT FRACTION      ENERGY      TEMP
                                          (SEE NOTE)     KJ/KG-MOL      K  
             H2                           1.0000000         0.000      0.000

 O/F=    0.00000  %FUEL=100.000000  R,EQ.RATIO= 0.000000  PHI,EQ.RATIO= 0.000000

 THERMODYNAMIC PROPERTIES

 P, BAR            910.00   910.00   910.00   910.00   910.00   910.00   910.00   910.00
 T, K             2880.00  2890.00  2900.00  2910.00  2920.00  2930.00  2940.00  2950.00
 RHO, KG/CU M    7.6472 0 7.6203 0 7.5935 0 7.5670 0 7.5405 0 7.5143 0 7.4882 0 7.4623 0
 H, KJ/KG         42223.6  42420.0  42616.9  42814.2  43012.0  43210.4  43409.2  43608.6
 U, KJ/KG         30323.8  30478.2  30633.0  30788.2  30944.0  31100.2  31256.9  31414.0
 G, KJ/KG       -164994.2-165714.1-166434.6-167155.8-167877.7-168600.2-169323.5-170047.4
 S, KJ/(KG)(K)    71.9506  72.0187  72.0867  72.1546  72.2225  72.2903  72.3581  72.4258

 M, (1/n)           2.012    2.012    2.012    2.012    2.012    2.012    2.012    2.011
 (dLV/dLP)t      -1.00089 -1.00092 -1.00095 -1.00098 -1.00102 -1.00105 -1.00108 -1.00112
 (dLV/dLT)p        1.0171   1.0176   1.0181   1.0187   1.0192   1.0198   1.0204   1.0210
 Cp, KJ/(KG)(K)   19.6131  19.6612  19.7100  19.7593  19.8094  19.8601  19.9115  19.9635
 GAMMAs            1.2772   1.2767   1.2761   1.2756   1.2750   1.2745   1.2740   1.2734
 SON VEL,M/SEC     3898.5   3904.6   3910.6   3916.7   3922.7   3928.7   3934.7   3940.7

 TRANSPORT PROPERTIES (GASES ONLY)
   CONDUCTIVITY IN UNITS OF MILLIWATTS/(CM)(K)

 VISC,MILLIPOISE  0.44256  0.44380  0.44503  0.44627  0.44750  0.44874  0.44998  0.45122

  WITH EQUILIBRIUM REACTIONS

 Cp, KJ/(KG)(K)   19.6131  19.6612  19.7100  19.7593  19.8094  19.8601  19.9115  19.9635
 CONDUCTIVITY     13.1502  13.2398  13.3306  13.4226  13.5158  13.6101  13.7057  13.8025
 PRANDTL NUMBER    0.6601   0.6590   0.6580   0.6569   0.6559   0.6548   0.6537   0.6526

  WITH FROZEN REACTIONS

 Cp, KJ/(KG)(K)   18.2595  18.2714  18.2831  18.2949  18.3066  18.3183  18.3299  18.3415
 CONDUCTIVITY     11.4752  11.5150  11.5548  11.5947  11.6346  11.6745  11.7146  11.7546
 PRANDTL NUMBER    0.7042   0.7042   0.7042   0.7041   0.7041   0.7041   0.7041   0.7041

 MOLE FRACTIONS

 *H               0.00357  0.00369  0.00381  0.00394  0.00407  0.00420  0.00433  0.00447
 *H2              0.99643  0.99631  0.99619  0.99606  0.99593  0.99580  0.99567  0.99553

  * THERMODYNAMIC PROPERTIES FITTED TO 20000.K

 NOTE. WEIGHT FRACTION OF FUEL IN TOTAL FUELS AND OF OXIDANT IN TOTAL OXIDANTS









               THERMODYNAMIC EQUILIBRIUM PROPERTIES AT ASSIGNED

                           TEMPERATURE AND PRESSURE

 CASE =                

             REACTANT                    WT FRACTION      ENERGY      TEMP
                                          (SEE NOTE)     KJ/KG-MOL      K  
             H2                           1.0000000         0.000      0.000

 O/F=    0.00000  %FUEL=100.000000  R,EQ.RATIO= 0.000000  PHI,EQ.RATIO= 0.000000

 THERMODYNAMIC PROPERTIES

 P, BAR            910.00   910.00   910.00   910.00
 T, K             2960.00  2970.00  2980.00  2990.00
 RHO, KG/CU M    7.4366 0 7.4110 0 7.3856 0 7.3603 0
 H, KJ/KG         43808.5  44008.9  44209.9  44411.4
 U, KJ/KG         31571.7  31729.9  31888.6  32047.8
 G, KJ/KG       -170772.0-171497.3-172223.2-172949.8
 S, KJ/(KG)(K)    72.4934  72.5610  72.6286  72.6961

 M, (1/n)           2.011    2.011    2.011    2.011
 (dLV/dLP)t      -1.00115 -1.00119 -1.00123 -1.00127
 (dLV/dLT)p        1.0216   1.0222   1.0228   1.0234
 Cp, KJ/(KG)(K)   20.0162  20.0697  20.1238  20.1786
 GAMMAs            1.2729   1.2723   1.2718   1.2712
 SON VEL,M/SEC     3946.6   3952.6   3958.5   3964.5

 TRANSPORT PROPERTIES (GASES ONLY)
   CONDUCTIVITY IN UNITS OF MILLIWATTS/(CM)(K)

 VISC,MILLIPOISE  0.45246  0.45370  0.45494  0.45618

  WITH EQUILIBRIUM REACTIONS

 Cp, KJ/(KG)(K)   20.0162  20.0697  20.1238  20.1786
 CONDUCTIVITY     13.9005  13.9998  14.1004  14.2023
 PRANDTL NUMBER    0.6515   0.6504   0.6493   0.6481

  WITH FROZEN REACTIONS

 Cp, KJ/(KG)(K)   18.3530  18.3645  18.3760  18.3875
 CONDUCTIVITY     11.7947  11.8349  11.8751  11.9154
 PRANDTL NUMBER    0.7040   0.7040   0.7040   0.7040

 MOLE FRACTIONS

 *H               0.00462  0.00477  0.00492  0.00507
 *H2              0.99538  0.99523  0.99508  0.99493

  * THERMODYNAMIC PROPERTIES FITTED TO 20000.K

 NOTE. WEIGHT FRACTION OF FUEL IN TOTAL FUELS AND OF OXIDANT IN TOTAL OXIDANTS



  
