
 *******************************************************************************

         NASA-GLENN CHEMICAL EQUILIBRIUM PROGRAM CEA2, MAY 21, 2004
                   BY  BONNIE MCBRIDE AND SANFORD GORDON
      REFS: NASA RP-1311, PART I, 1994 AND NASA RP-1311, PART II, 1996

 *******************************************************************************



  prob tp ions
  p,bar= 0.0225,0.025,0.028,0.031,0.035,0.039,0.044,0.049,0.054,0.06,0.067,0.074,
 0.0825,0.091,0.1
  t,k= 825,830,835,840,845,850,855,860,865,870,875,880,885,890,895
  
  
  reac
  fuel H2                wt%=100.0000
  oxid H2                wt%=100.0000
  
  output short
  
  output massf
  
  output siunits
  
  output transport
  
 end





               THERMODYNAMIC EQUILIBRIUM PROPERTIES AT ASSIGNED

                           TEMPERATURE AND PRESSURE

 CASE =                

             REACTANT                    WT FRACTION      ENERGY      TEMP
                                          (SEE NOTE)     KJ/KG-MOL      K  
 FUEL        H2                           1.0000000         0.000      0.000
 OXIDANT     H2                           1.0000000         0.000      0.000

 O/F=    1.00000  %FUEL= 50.000000  R,EQ.RATIO= 0.000000  PHI,EQ.RATIO=-1.000000

 THERMODYNAMIC PROPERTIES

 P, BAR           0.02250  0.02250  0.02250  0.02250  0.02250  0.02250  0.02250  0.02250
 T, K              825.00   830.00   835.00   840.00   845.00   850.00   855.00   860.00
 RHO, KG/CU M    6.6124-4 6.5726-4 6.5332-4 6.4943-4 6.4559-4 6.4179-4 6.3804-4 6.3433-4
 H, KJ/KG         7660.65  7734.27  7807.94  7881.63  7955.36  8029.11  8102.90  8176.72
 U, KJ/KG         4257.93  4310.95  4363.99  4417.07  4470.17  4523.31  4576.47  4629.67
 G, KJ/KG        -70919.7 -71396.0 -71872.8 -72350.1 -72827.9 -73306.1 -73784.8 -74263.9
 S, KJ/(KG)(K)    95.2489  95.3377  95.4261  95.5140  95.6015  95.6885  95.7751  95.8612

 M, (1/n)           2.016    2.016    2.016    2.016    2.016    2.016    2.016    2.016
 (dLV/dLP)t      -1.00000 -0.99999 -0.99999 -0.99999 -0.99999 -0.99999 -0.99999 -0.99999
 (dLV/dLT)p        1.0000   1.0000   1.0000   1.0000   1.0000   1.0000   1.0000   1.0000
 Cp, KJ/(KG)(K)   14.7252  14.7308  14.7366  14.7424  14.7483  14.7543  14.7603  14.7664
 GAMMAs            1.3891   1.3889   1.3887   1.3885   1.3882   1.3880   1.3878   1.3876
 SON VEL,M/SEC     2174.1   2180.5   2186.9   2193.3   2199.6   2205.9   2212.2   2218.5

 TRANSPORT PROPERTIES (GASES ONLY)
   CONDUCTIVITY IN UNITS OF MILLIWATTS/(CM)(K)

 VISC,MILLIPOISE  0.17949  0.18025  0.18101  0.18177  0.18253  0.18329  0.18405  0.18481

  WITH EQUILIBRIUM REACTIONS

 Cp, KJ/(KG)(K)   14.7252  14.7308  14.7366  14.7424  14.7483  14.7543  14.7603  14.7664
 CONDUCTIVITY      3.8275   3.8450   3.8625   3.8800   3.8975   3.9150   3.9325   3.9500
 PRANDTL NUMBER    0.6905   0.6906   0.6906   0.6907   0.6907   0.6908   0.6908   0.6909

  WITH FROZEN REACTIONS

 Cp, KJ/(KG)(K)   14.7252  14.7308  14.7366  14.7424  14.7483  14.7543  14.7603  14.7664
 CONDUCTIVITY      3.8275   3.8450   3.8625   3.8800   3.8975   3.9150   3.9325   3.9500
 PRANDTL NUMBER    0.6905   0.6906   0.6906   0.6907   0.6907   0.6908   0.6908   0.6909

 MASS FRACTIONS

 *H2              1.00000  1.00000  1.00000  1.00000  1.00000  1.00000  1.00000  1.00000

  * THERMODYNAMIC PROPERTIES FITTED TO 20000.K

 NOTE. WEIGHT FRACTION OF FUEL IN TOTAL FUELS AND OF OXIDANT IN TOTAL OXIDANTS









               THERMODYNAMIC EQUILIBRIUM PROPERTIES AT ASSIGNED

                           TEMPERATURE AND PRESSURE

 CASE =                

             REACTANT                    WT FRACTION      ENERGY      TEMP
                                          (SEE NOTE)     KJ/KG-MOL      K  
 FUEL        H2                           1.0000000         0.000      0.000
 OXIDANT     H2                           1.0000000         0.000      0.000

 O/F=    1.00000  %FUEL= 50.000000  R,EQ.RATIO= 0.000000  PHI,EQ.RATIO=-1.000000

 THERMODYNAMIC PROPERTIES

 P, BAR           0.02250  0.02250  0.02250  0.02250  0.02250  0.02250  0.02250  0.02500
 T, K              865.00   870.00   875.00   880.00   885.00   890.00   895.00   825.00
 RHO, KG/CU M    6.3066-4 6.2704-4 6.2346-4 6.1991-4 6.1641-4 6.1295-4 6.0952-4 7.3471-4
 H, KJ/KG         8250.56  8324.44  8398.35  8472.30  8546.27  8620.28  8694.33  7660.63
 U, KJ/KG         4682.89  4736.15  4789.44  4842.76  4896.11  4949.50  5002.92  4257.93
 G, KJ/KG        -74743.4 -75223.4 -75703.7 -76184.5 -76665.7 -77147.4 -77629.4 -70561.0
 S, KJ/(KG)(K)    95.9468  96.0320  96.1167  96.2009  96.2848  96.3682  96.4511  94.8141

 M, (1/n)           2.016    2.016    2.016    2.016    2.016    2.016    2.016    2.016
 (dLV/dLP)t      -0.99999 -0.99999 -0.99999 -0.99999 -0.99999 -0.99999 -0.99999 -0.99999
 (dLV/dLT)p        1.0000   1.0000   1.0000   1.0000   1.0000   1.0000   1.0000   1.0000
 Cp, KJ/(KG)(K)   14.7727  14.7790  14.7854  14.7919  14.7985  14.8051  14.8119  14.7252
 GAMMAs            1.3874   1.3871   1.3869   1.3867   1.3864   1.3862   1.3859   1.3891
 SON VEL,M/SEC     2224.8   2231.0   2237.2   2243.4   2249.6   2255.7   2261.9   2174.1

 TRANSPORT PROPERTIES (GASES ONLY)
   CONDUCTIVITY IN UNITS OF MILLIWATTS/(CM)(K)

 VISC,MILLIPOISE  0.18556  0.18632  0.18707  0.18782  0.18857  0.18932  0.19007  0.17949

  WITH EQUILIBRIUM REACTIONS

 Cp, KJ/(KG)(K)   14.7727  14.7790  14.7854  14.7919  14.7985  14.8051  14.8119  14.7252
 CONDUCTIVITY      3.9675   3.9850   4.0024   4.0199   4.0374   4.0549   4.0724   3.8275
 PRANDTL NUMBER    0.6909   0.6910   0.6911   0.6911   0.6912   0.6913   0.6913   0.6905

  WITH FROZEN REACTIONS

 Cp, KJ/(KG)(K)   14.7727  14.7790  14.7854  14.7919  14.7985  14.8051  14.8119  14.7252
 CONDUCTIVITY      3.9675   3.9850   4.0024   4.0199   4.0374   4.0549   4.0724   3.8275
 PRANDTL NUMBER    0.6909   0.6910   0.6911   0.6911   0.6912   0.6913   0.6913   0.6905

 MASS FRACTIONS

 *H2              1.00000  1.00000  1.00000  1.00000  1.00000  1.00000  1.00000  1.00000

  * THERMODYNAMIC PROPERTIES FITTED TO 20000.K

 NOTE. WEIGHT FRACTION OF FUEL IN TOTAL FUELS AND OF OXIDANT IN TOTAL OXIDANTS









               THERMODYNAMIC EQUILIBRIUM PROPERTIES AT ASSIGNED

                           TEMPERATURE AND PRESSURE

 CASE =                

             REACTANT                    WT FRACTION      ENERGY      TEMP
                                          (SEE NOTE)     KJ/KG-MOL      K  
 FUEL        H2                           1.0000000         0.000      0.000
 OXIDANT     H2                           1.0000000         0.000      0.000

 O/F=    1.00000  %FUEL= 50.000000  R,EQ.RATIO= 0.000000  PHI,EQ.RATIO=-1.000000

 THERMODYNAMIC PROPERTIES

 P, BAR           0.02500  0.02500  0.02500  0.02500  0.02500  0.02500  0.02500  0.02500
 T, K              830.00   835.00   840.00   845.00   850.00   855.00   860.00   865.00
 RHO, KG/CU M    7.3028-4 7.2591-4 7.2159-4 7.1732-4 7.1310-4 7.0893-4 7.0481-4 7.0074-4
 H, KJ/KG         7734.27  7807.93  7881.63  7955.36  8029.11  8102.90  8176.72  8250.56
 U, KJ/KG         4310.95  4363.99  4417.07  4470.17  4523.31  4576.47  4629.67  4682.89
 G, KJ/KG        -71035.2 -71509.9 -71985.1 -72460.7 -72936.8 -73413.3 -73890.2 -74367.5
 S, KJ/(KG)(K)    94.9030  94.9915  95.0794  95.1670  95.2540  95.3405  95.4266  95.5122

 M, (1/n)           2.016    2.016    2.016    2.016    2.016    2.016    2.016    2.016
 (dLV/dLP)t      -0.99999 -0.99999 -0.99999 -0.99999 -0.99999 -0.99999 -0.99999 -0.99999
 (dLV/dLT)p        1.0000   1.0000   1.0000   1.0000   1.0000   1.0000   1.0000   1.0000
 Cp, KJ/(KG)(K)   14.7308  14.7366  14.7424  14.7483  14.7543  14.7603  14.7664  14.7727
 GAMMAs            1.3889   1.3887   1.3885   1.3882   1.3880   1.3878   1.3876   1.3874
 SON VEL,M/SEC     2180.5   2186.9   2193.3   2199.6   2205.9   2212.2   2218.5   2224.8

 TRANSPORT PROPERTIES (GASES ONLY)
   CONDUCTIVITY IN UNITS OF MILLIWATTS/(CM)(K)

 VISC,MILLIPOISE  0.18025  0.18101  0.18177  0.18253  0.18329  0.18405  0.18481  0.18556

  WITH EQUILIBRIUM REACTIONS

 Cp, KJ/(KG)(K)   14.7308  14.7366  14.7424  14.7483  14.7543  14.7603  14.7664  14.7727
 CONDUCTIVITY      3.8450   3.8625   3.8800   3.8975   3.9150   3.9325   3.9500   3.9675
 PRANDTL NUMBER    0.6906   0.6906   0.6907   0.6907   0.6908   0.6908   0.6909   0.6909

  WITH FROZEN REACTIONS

 Cp, KJ/(KG)(K)   14.7308  14.7366  14.7424  14.7483  14.7543  14.7603  14.7664  14.7727
 CONDUCTIVITY      3.8450   3.8625   3.8800   3.8975   3.9150   3.9325   3.9500   3.9675
 PRANDTL NUMBER    0.6906   0.6906   0.6907   0.6907   0.6908   0.6908   0.6909   0.6909

 MASS FRACTIONS

 *H2              1.00000  1.00000  1.00000  1.00000  1.00000  1.00000  1.00000  1.00000

  * THERMODYNAMIC PROPERTIES FITTED TO 20000.K

 NOTE. WEIGHT FRACTION OF FUEL IN TOTAL FUELS AND OF OXIDANT IN TOTAL OXIDANTS









               THERMODYNAMIC EQUILIBRIUM PROPERTIES AT ASSIGNED

                           TEMPERATURE AND PRESSURE

 CASE =                

             REACTANT                    WT FRACTION      ENERGY      TEMP
                                          (SEE NOTE)     KJ/KG-MOL      K  
 FUEL        H2                           1.0000000         0.000      0.000
 OXIDANT     H2                           1.0000000         0.000      0.000

 O/F=    1.00000  %FUEL= 50.000000  R,EQ.RATIO= 0.000000  PHI,EQ.RATIO=-1.000000

 THERMODYNAMIC PROPERTIES

 P, BAR           0.02500  0.02500  0.02500  0.02500  0.02500  0.02500  0.02800  0.02800
 T, K              870.00   875.00   880.00   885.00   890.00   895.00   825.00   830.00
 RHO, KG/CU M    6.9671-4 6.9273-4 6.8879-4 6.8490-4 6.8105-4 6.7725-4 8.2287-4 8.1792-4
 H, KJ/KG         8324.44  8398.35  8472.30  8546.27  8620.28  8694.33  7660.63  7734.27
 U, KJ/KG         4736.15  4789.44  4842.76  4896.11  4949.50  5002.92  4257.93  4310.95
 G, KJ/KG        -74845.3 -75323.5 -75802.1 -76281.2 -76760.6 -77240.5 -70175.4 -70647.3
 S, KJ/(KG)(K)    95.5974  95.6821  95.7664  95.8502  95.9336  96.0166  94.3467  94.4356

 M, (1/n)           2.016    2.016    2.016    2.016    2.016    2.016    2.016    2.016
 (dLV/dLP)t      -0.99999 -0.99999 -0.99999 -0.99999 -0.99999 -0.99999 -0.99999 -0.99999
 (dLV/dLT)p        1.0000   1.0000   1.0000   1.0000   1.0000   1.0000   1.0000   1.0000
 Cp, KJ/(KG)(K)   14.7790  14.7854  14.7919  14.7985  14.8051  14.8119  14.7252  14.7308
 GAMMAs            1.3871   1.3869   1.3867   1.3864   1.3862   1.3859   1.3891   1.3889
 SON VEL,M/SEC     2231.0   2237.2   2243.4   2249.6   2255.7   2261.9   2174.1   2180.5

 TRANSPORT PROPERTIES (GASES ONLY)
   CONDUCTIVITY IN UNITS OF MILLIWATTS/(CM)(K)

 VISC,MILLIPOISE  0.18632  0.18707  0.18782  0.18857  0.18932  0.19007  0.17949  0.18025

  WITH EQUILIBRIUM REACTIONS

 Cp, KJ/(KG)(K)   14.7790  14.7854  14.7919  14.7985  14.8051  14.8119  14.7252  14.7308
 CONDUCTIVITY      3.9850   4.0024   4.0199   4.0374   4.0549   4.0724   3.8275   3.8450
 PRANDTL NUMBER    0.6910   0.6911   0.6911   0.6912   0.6913   0.6913   0.6905   0.6906

  WITH FROZEN REACTIONS

 Cp, KJ/(KG)(K)   14.7790  14.7854  14.7919  14.7985  14.8051  14.8119  14.7252  14.7308
 CONDUCTIVITY      3.9850   4.0024   4.0199   4.0374   4.0549   4.0724   3.8275   3.8450
 PRANDTL NUMBER    0.6910   0.6911   0.6911   0.6912   0.6913   0.6913   0.6905   0.6906

 MASS FRACTIONS

 *H2              1.00000  1.00000  1.00000  1.00000  1.00000  1.00000  1.00000  1.00000

  * THERMODYNAMIC PROPERTIES FITTED TO 20000.K

 NOTE. WEIGHT FRACTION OF FUEL IN TOTAL FUELS AND OF OXIDANT IN TOTAL OXIDANTS









               THERMODYNAMIC EQUILIBRIUM PROPERTIES AT ASSIGNED

                           TEMPERATURE AND PRESSURE

 CASE =                

             REACTANT                    WT FRACTION      ENERGY      TEMP
                                          (SEE NOTE)     KJ/KG-MOL      K  
 FUEL        H2                           1.0000000         0.000      0.000
 OXIDANT     H2                           1.0000000         0.000      0.000

 O/F=    1.00000  %FUEL= 50.000000  R,EQ.RATIO= 0.000000  PHI,EQ.RATIO=-1.000000

 THERMODYNAMIC PROPERTIES

 P, BAR           0.02800  0.02800  0.02800  0.02800  0.02800  0.02800  0.02800  0.02800
 T, K              835.00   840.00   845.00   850.00   855.00   860.00   865.00   870.00
 RHO, KG/CU M    8.1302-4 8.0818-4 8.0340-4 7.9867-4 7.9400-4 7.8939-4 7.8482-4 7.8031-4
 H, KJ/KG         7807.93  7881.63  7955.36  8029.11  8102.90  8176.72  8250.56  8324.44
 U, KJ/KG         4363.99  4417.07  4470.17  4523.31  4576.47  4629.67  4682.89  4736.15
 G, KJ/KG        -71119.6 -71592.5 -72065.7 -72539.5 -73013.6 -73488.2 -73963.2 -74438.6
 S, KJ/(KG)(K)    94.5240  94.6120  94.6995  94.7866  94.8731  94.9592  95.0448  95.1300

 M, (1/n)           2.016    2.016    2.016    2.016    2.016    2.016    2.016    2.016
 (dLV/dLP)t      -0.99999 -0.99999 -0.99999 -0.99999 -0.99999 -0.99999 -0.99999 -0.99999
 (dLV/dLT)p        1.0000   1.0000   1.0000   1.0000   1.0000   1.0000   1.0000   1.0000
 Cp, KJ/(KG)(K)   14.7366  14.7424  14.7483  14.7543  14.7603  14.7664  14.7727  14.7790
 GAMMAs            1.3887   1.3885   1.3882   1.3880   1.3878   1.3876   1.3874   1.3871
 SON VEL,M/SEC     2186.9   2193.3   2199.6   2205.9   2212.2   2218.5   2224.8   2231.0

 TRANSPORT PROPERTIES (GASES ONLY)
   CONDUCTIVITY IN UNITS OF MILLIWATTS/(CM)(K)

 VISC,MILLIPOISE  0.18101  0.18177  0.18253  0.18329  0.18405  0.18481  0.18556  0.18632

  WITH EQUILIBRIUM REACTIONS

 Cp, KJ/(KG)(K)   14.7366  14.7424  14.7483  14.7543  14.7603  14.7664  14.7727  14.7790
 CONDUCTIVITY      3.8625   3.8800   3.8975   3.9150   3.9325   3.9500   3.9675   3.9850
 PRANDTL NUMBER    0.6906   0.6907   0.6907   0.6908   0.6908   0.6909   0.6909   0.6910

  WITH FROZEN REACTIONS

 Cp, KJ/(KG)(K)   14.7366  14.7424  14.7483  14.7543  14.7603  14.7664  14.7727  14.7790
 CONDUCTIVITY      3.8625   3.8800   3.8975   3.9150   3.9325   3.9500   3.9675   3.9850
 PRANDTL NUMBER    0.6906   0.6907   0.6907   0.6908   0.6908   0.6909   0.6909   0.6910

 MASS FRACTIONS

 *H2              1.00000  1.00000  1.00000  1.00000  1.00000  1.00000  1.00000  1.00000

  * THERMODYNAMIC PROPERTIES FITTED TO 20000.K

 NOTE. WEIGHT FRACTION OF FUEL IN TOTAL FUELS AND OF OXIDANT IN TOTAL OXIDANTS









               THERMODYNAMIC EQUILIBRIUM PROPERTIES AT ASSIGNED

                           TEMPERATURE AND PRESSURE

 CASE =                

             REACTANT                    WT FRACTION      ENERGY      TEMP
                                          (SEE NOTE)     KJ/KG-MOL      K  
 FUEL        H2                           1.0000000         0.000      0.000
 OXIDANT     H2                           1.0000000         0.000      0.000

 O/F=    1.00000  %FUEL= 50.000000  R,EQ.RATIO= 0.000000  PHI,EQ.RATIO=-1.000000

 THERMODYNAMIC PROPERTIES

 P, BAR           0.02800  0.02800  0.02800  0.02800  0.02800  0.03100  0.03100  0.03100
 T, K              875.00   880.00   885.00   890.00   895.00   825.00   830.00   835.00
 RHO, KG/CU M    7.7586-4 7.7145-4 7.6709-4 7.6278-4 7.5852-4 9.1104-4 9.0555-4 9.0013-4
 H, KJ/KG         8398.35  8472.30  8546.27  8620.28  8694.33  7660.63  7734.27  7807.93
 U, KJ/KG         4789.44  4842.76  4896.11  4949.50  5002.92  4257.93  4310.95  4363.99
 G, KJ/KG        -74914.5 -75390.8 -75867.5 -76344.6 -76822.1 -69829.0 -70298.8 -70769.1
 S, KJ/(KG)(K)    95.2147  95.2989  95.3828  95.4662  95.5491  93.9269  94.0158  94.1042

 M, (1/n)           2.016    2.016    2.016    2.016    2.016    2.016    2.016    2.016
 (dLV/dLP)t      -0.99999 -0.99999 -0.99999 -0.99999 -0.99999 -0.99999 -0.99999 -0.99999
 (dLV/dLT)p        1.0000   1.0000   1.0000   1.0000   1.0000   1.0000   1.0000   1.0000
 Cp, KJ/(KG)(K)   14.7854  14.7919  14.7985  14.8051  14.8119  14.7252  14.7308  14.7366
 GAMMAs            1.3869   1.3867   1.3864   1.3862   1.3859   1.3891   1.3889   1.3887
 SON VEL,M/SEC     2237.2   2243.4   2249.6   2255.7   2261.9   2174.1   2180.5   2186.9

 TRANSPORT PROPERTIES (GASES ONLY)
   CONDUCTIVITY IN UNITS OF MILLIWATTS/(CM)(K)

 VISC,MILLIPOISE  0.18707  0.18782  0.18857  0.18932  0.19007  0.17949  0.18025  0.18101

  WITH EQUILIBRIUM REACTIONS

 Cp, KJ/(KG)(K)   14.7854  14.7919  14.7985  14.8051  14.8119  14.7252  14.7308  14.7366
 CONDUCTIVITY      4.0024   4.0199   4.0374   4.0549   4.0724   3.8275   3.8450   3.8625
 PRANDTL NUMBER    0.6911   0.6911   0.6912   0.6913   0.6913   0.6905   0.6906   0.6906

  WITH FROZEN REACTIONS

 Cp, KJ/(KG)(K)   14.7854  14.7919  14.7985  14.8051  14.8119  14.7252  14.7308  14.7366
 CONDUCTIVITY      4.0024   4.0199   4.0374   4.0549   4.0724   3.8275   3.8450   3.8625
 PRANDTL NUMBER    0.6911   0.6911   0.6912   0.6913   0.6913   0.6905   0.6906   0.6906

 MASS FRACTIONS

 *H2              1.00000  1.00000  1.00000  1.00000  1.00000  1.00000  1.00000  1.00000

  * THERMODYNAMIC PROPERTIES FITTED TO 20000.K

 NOTE. WEIGHT FRACTION OF FUEL IN TOTAL FUELS AND OF OXIDANT IN TOTAL OXIDANTS









               THERMODYNAMIC EQUILIBRIUM PROPERTIES AT ASSIGNED

                           TEMPERATURE AND PRESSURE

 CASE =                

             REACTANT                    WT FRACTION      ENERGY      TEMP
                                          (SEE NOTE)     KJ/KG-MOL      K  
 FUEL        H2                           1.0000000         0.000      0.000
 OXIDANT     H2                           1.0000000         0.000      0.000

 O/F=    1.00000  %FUEL= 50.000000  R,EQ.RATIO= 0.000000  PHI,EQ.RATIO=-1.000000

 THERMODYNAMIC PROPERTIES

 P, BAR           0.03100  0.03100  0.03100  0.03100  0.03100  0.03100  0.03100  0.03100
 T, K              840.00   845.00   850.00   855.00   860.00   865.00   870.00   875.00
 RHO, KG/CU M    8.9477-4 8.8948-4 8.8425-4 8.7908-4 8.7397-4 8.6891-4 8.6392-4 8.5898-4
 H, KJ/KG         7881.63  7955.36  8029.11  8102.90  8176.72  8250.56  8324.44  8398.35
 U, KJ/KG         4417.07  4470.17  4523.31  4576.47  4629.67  4682.89  4736.15  4789.44
 G, KJ/KG        -71239.8 -71711.0 -72182.6 -72654.7 -73127.2 -73600.1 -74073.4 -74547.2
 S, KJ/(KG)(K)    94.1922  94.2797  94.3667  94.4533  94.5394  94.6250  94.7102  94.7949

 M, (1/n)           2.016    2.016    2.016    2.016    2.016    2.016    2.016    2.016
 (dLV/dLP)t      -0.99999 -0.99999 -0.99999 -0.99999 -0.99999 -0.99999 -0.99999 -0.99999
 (dLV/dLT)p        1.0000   1.0000   1.0000   1.0000   1.0000   1.0000   1.0000   1.0000
 Cp, KJ/(KG)(K)   14.7424  14.7483  14.7543  14.7603  14.7664  14.7727  14.7790  14.7854
 GAMMAs            1.3885   1.3882   1.3880   1.3878   1.3876   1.3874   1.3871   1.3869
 SON VEL,M/SEC     2193.3   2199.6   2205.9   2212.2   2218.5   2224.8   2231.0   2237.2

 TRANSPORT PROPERTIES (GASES ONLY)
   CONDUCTIVITY IN UNITS OF MILLIWATTS/(CM)(K)

 VISC,MILLIPOISE  0.18177  0.18253  0.18329  0.18405  0.18481  0.18556  0.18632  0.18707

  WITH EQUILIBRIUM REACTIONS

 Cp, KJ/(KG)(K)   14.7424  14.7483  14.7543  14.7603  14.7664  14.7727  14.7790  14.7854
 CONDUCTIVITY      3.8800   3.8975   3.9150   3.9325   3.9500   3.9675   3.9850   4.0024
 PRANDTL NUMBER    0.6907   0.6907   0.6908   0.6908   0.6909   0.6909   0.6910   0.6911

  WITH FROZEN REACTIONS

 Cp, KJ/(KG)(K)   14.7424  14.7483  14.7543  14.7603  14.7664  14.7727  14.7790  14.7854
 CONDUCTIVITY      3.8800   3.8975   3.9150   3.9325   3.9500   3.9675   3.9850   4.0024
 PRANDTL NUMBER    0.6907   0.6907   0.6908   0.6908   0.6909   0.6909   0.6910   0.6911

 MASS FRACTIONS

 *H2              1.00000  1.00000  1.00000  1.00000  1.00000  1.00000  1.00000  1.00000

  * THERMODYNAMIC PROPERTIES FITTED TO 20000.K

 NOTE. WEIGHT FRACTION OF FUEL IN TOTAL FUELS AND OF OXIDANT IN TOTAL OXIDANTS









               THERMODYNAMIC EQUILIBRIUM PROPERTIES AT ASSIGNED

                           TEMPERATURE AND PRESSURE

 CASE =                

             REACTANT                    WT FRACTION      ENERGY      TEMP
                                          (SEE NOTE)     KJ/KG-MOL      K  
 FUEL        H2                           1.0000000         0.000      0.000
 OXIDANT     H2                           1.0000000         0.000      0.000

 O/F=    1.00000  %FUEL= 50.000000  R,EQ.RATIO= 0.000000  PHI,EQ.RATIO=-1.000000

 THERMODYNAMIC PROPERTIES

 P, BAR           0.03100  0.03100  0.03100  0.03100  0.03500  0.03500  0.03500  0.03500
 T, K              880.00   885.00   890.00   895.00   825.00   830.00   835.00   840.00
 RHO, KG/CU M    8.5410-4 8.4928-4 8.4451-4 8.3979-4 1.0286-3 1.0224-3 1.0163-3 1.0102-3
 H, KJ/KG         8472.30  8546.27  8620.28  8694.33  7660.63  7734.27  7807.93  7881.63
 U, KJ/KG         4842.76  4896.11  4949.50  5002.92  4257.93  4310.95  4363.99  4417.07
 G, KJ/KG        -75021.4 -75496.0 -75971.0 -76446.4 -69416.1 -69883.4 -70351.1 -70819.4
 S, KJ/(KG)(K)    94.8791  94.9630  95.0464  95.1293  93.4263  93.5152  93.6037  93.6917

 M, (1/n)           2.016    2.016    2.016    2.016    2.016    2.016    2.016    2.016
 (dLV/dLP)t      -0.99999 -0.99999 -0.99999 -0.99999 -0.99999 -0.99999 -0.99999 -0.99999
 (dLV/dLT)p        1.0000   1.0000   1.0000   1.0000   1.0000   1.0000   1.0000   1.0000
 Cp, KJ/(KG)(K)   14.7919  14.7985  14.8051  14.8119  14.7252  14.7308  14.7366  14.7424
 GAMMAs            1.3867   1.3864   1.3862   1.3859   1.3891   1.3889   1.3887   1.3885
 SON VEL,M/SEC     2243.4   2249.6   2255.7   2261.9   2174.1   2180.5   2186.9   2193.3

 TRANSPORT PROPERTIES (GASES ONLY)
   CONDUCTIVITY IN UNITS OF MILLIWATTS/(CM)(K)

 VISC,MILLIPOISE  0.18782  0.18857  0.18932  0.19007  0.17949  0.18025  0.18101  0.18177

  WITH EQUILIBRIUM REACTIONS

 Cp, KJ/(KG)(K)   14.7919  14.7985  14.8051  14.8119  14.7252  14.7308  14.7366  14.7424
 CONDUCTIVITY      4.0199   4.0374   4.0549   4.0724   3.8275   3.8450   3.8625   3.8800
 PRANDTL NUMBER    0.6911   0.6912   0.6913   0.6913   0.6905   0.6906   0.6906   0.6907

  WITH FROZEN REACTIONS

 Cp, KJ/(KG)(K)   14.7919  14.7985  14.8051  14.8119  14.7252  14.7308  14.7366  14.7424
 CONDUCTIVITY      4.0199   4.0374   4.0549   4.0724   3.8275   3.8450   3.8625   3.8800
 PRANDTL NUMBER    0.6911   0.6912   0.6913   0.6913   0.6905   0.6906   0.6906   0.6907

 MASS FRACTIONS

 *H2              1.00000  1.00000  1.00000  1.00000  1.00000  1.00000  1.00000  1.00000

  * THERMODYNAMIC PROPERTIES FITTED TO 20000.K

 NOTE. WEIGHT FRACTION OF FUEL IN TOTAL FUELS AND OF OXIDANT IN TOTAL OXIDANTS









               THERMODYNAMIC EQUILIBRIUM PROPERTIES AT ASSIGNED

                           TEMPERATURE AND PRESSURE

 CASE =                

             REACTANT                    WT FRACTION      ENERGY      TEMP
                                          (SEE NOTE)     KJ/KG-MOL      K  
 FUEL        H2                           1.0000000         0.000      0.000
 OXIDANT     H2                           1.0000000         0.000      0.000

 O/F=    1.00000  %FUEL= 50.000000  R,EQ.RATIO= 0.000000  PHI,EQ.RATIO=-1.000000

 THERMODYNAMIC PROPERTIES

 P, BAR           0.03500  0.03500  0.03500  0.03500  0.03500  0.03500  0.03500  0.03500
 T, K              845.00   850.00   855.00   860.00   865.00   870.00   875.00   880.00
 RHO, KG/CU M    1.0043-3 9.9834-4 9.9251-4 9.8673-4 9.8103-4 9.7539-4 9.6982-4 9.6431-4
 H, KJ/KG         7955.36  8029.11  8102.90  8176.72  8250.56  8324.44  8398.35  8472.30
 U, KJ/KG         4470.17  4523.31  4576.47  4629.67  4682.89  4736.15  4789.44  4842.76
 G, KJ/KG        -71288.0 -71757.2 -72226.7 -72696.7 -73167.1 -73637.9 -74109.2 -74580.9
 S, KJ/(KG)(K)    93.7792  93.8662  93.9527  94.0388  94.1245  94.2096  94.2943  94.3786

 M, (1/n)           2.016    2.016    2.016    2.016    2.016    2.016    2.016    2.016
 (dLV/dLP)t      -0.99999 -0.99999 -0.99999 -0.99999 -0.99999 -0.99999 -0.99999 -0.99999
 (dLV/dLT)p        1.0000   1.0000   1.0000   1.0000   1.0000   1.0000   1.0000   1.0000
 Cp, KJ/(KG)(K)   14.7483  14.7543  14.7603  14.7664  14.7727  14.7790  14.7854  14.7919
 GAMMAs            1.3882   1.3880   1.3878   1.3876   1.3874   1.3871   1.3869   1.3867
 SON VEL,M/SEC     2199.6   2205.9   2212.2   2218.5   2224.8   2231.0   2237.2   2243.4

 TRANSPORT PROPERTIES (GASES ONLY)
   CONDUCTIVITY IN UNITS OF MILLIWATTS/(CM)(K)

 VISC,MILLIPOISE  0.18253  0.18329  0.18405  0.18481  0.18556  0.18632  0.18707  0.18782

  WITH EQUILIBRIUM REACTIONS

 Cp, KJ/(KG)(K)   14.7483  14.7543  14.7603  14.7664  14.7727  14.7790  14.7854  14.7919
 CONDUCTIVITY      3.8975   3.9150   3.9325   3.9500   3.9675   3.9850   4.0024   4.0199
 PRANDTL NUMBER    0.6907   0.6908   0.6908   0.6909   0.6909   0.6910   0.6911   0.6911

  WITH FROZEN REACTIONS

 Cp, KJ/(KG)(K)   14.7483  14.7543  14.7603  14.7664  14.7727  14.7790  14.7854  14.7919
 CONDUCTIVITY      3.8975   3.9150   3.9325   3.9500   3.9675   3.9850   4.0024   4.0199
 PRANDTL NUMBER    0.6907   0.6908   0.6908   0.6909   0.6909   0.6910   0.6911   0.6911

 MASS FRACTIONS

 *H2              1.00000  1.00000  1.00000  1.00000  1.00000  1.00000  1.00000  1.00000

  * THERMODYNAMIC PROPERTIES FITTED TO 20000.K

 NOTE. WEIGHT FRACTION OF FUEL IN TOTAL FUELS AND OF OXIDANT IN TOTAL OXIDANTS









               THERMODYNAMIC EQUILIBRIUM PROPERTIES AT ASSIGNED

                           TEMPERATURE AND PRESSURE

 CASE =                

             REACTANT                    WT FRACTION      ENERGY      TEMP
                                          (SEE NOTE)     KJ/KG-MOL      K  
 FUEL        H2                           1.0000000         0.000      0.000
 OXIDANT     H2                           1.0000000         0.000      0.000

 O/F=    1.00000  %FUEL= 50.000000  R,EQ.RATIO= 0.000000  PHI,EQ.RATIO=-1.000000

 THERMODYNAMIC PROPERTIES

 P, BAR           0.03500  0.03500  0.03500  0.03900  0.03900  0.03900  0.03900  0.03900
 T, K              885.00   890.00   895.00   825.00   830.00   835.00   840.00   845.00
 RHO, KG/CU M    9.5886-4 9.5347-4 9.4815-4 1.1461-3 1.1392-3 1.1324-3 1.1257-3 1.1190-3
 H, KJ/KG         8546.27  8620.28  8694.33  7660.63  7734.27  7807.93  7881.63  7955.36
 U, KJ/KG         4896.11  4949.50  5002.92  4257.93  4310.95  4363.99  4417.07  4470.17
 G, KJ/KG        -75053.0 -75525.5 -75998.4 -69047.9 -69512.9 -69978.5 -70444.5 -70910.9
 S, KJ/(KG)(K)    94.4624  94.5458  94.6288  92.9800  93.0689  93.1574  93.2453  93.3328

 M, (1/n)           2.016    2.016    2.016    2.016    2.016    2.016    2.016    2.016
 (dLV/dLP)t      -0.99999 -0.99999 -0.99999 -0.99999 -0.99999 -0.99999 -0.99999 -0.99999
 (dLV/dLT)p        1.0000   1.0000   1.0000   1.0000   1.0000   1.0000   1.0000   1.0000
 Cp, KJ/(KG)(K)   14.7985  14.8051  14.8119  14.7252  14.7308  14.7366  14.7424  14.7483
 GAMMAs            1.3864   1.3862   1.3859   1.3891   1.3889   1.3887   1.3885   1.3882
 SON VEL,M/SEC     2249.6   2255.7   2261.9   2174.1   2180.5   2186.9   2193.3   2199.6

 TRANSPORT PROPERTIES (GASES ONLY)
   CONDUCTIVITY IN UNITS OF MILLIWATTS/(CM)(K)

 VISC,MILLIPOISE  0.18857  0.18932  0.19007  0.17949  0.18025  0.18101  0.18177  0.18253

  WITH EQUILIBRIUM REACTIONS

 Cp, KJ/(KG)(K)   14.7985  14.8051  14.8119  14.7252  14.7308  14.7366  14.7424  14.7483
 CONDUCTIVITY      4.0374   4.0549   4.0724   3.8275   3.8450   3.8625   3.8800   3.8975
 PRANDTL NUMBER    0.6912   0.6913   0.6913   0.6905   0.6906   0.6906   0.6907   0.6907

  WITH FROZEN REACTIONS

 Cp, KJ/(KG)(K)   14.7985  14.8051  14.8119  14.7252  14.7308  14.7366  14.7424  14.7483
 CONDUCTIVITY      4.0374   4.0549   4.0724   3.8275   3.8450   3.8625   3.8800   3.8975
 PRANDTL NUMBER    0.6912   0.6913   0.6913   0.6905   0.6906   0.6906   0.6907   0.6907

 MASS FRACTIONS

 *H2              1.00000  1.00000  1.00000  1.00000  1.00000  1.00000  1.00000  1.00000

  * THERMODYNAMIC PROPERTIES FITTED TO 20000.K

 NOTE. WEIGHT FRACTION OF FUEL IN TOTAL FUELS AND OF OXIDANT IN TOTAL OXIDANTS









               THERMODYNAMIC EQUILIBRIUM PROPERTIES AT ASSIGNED

                           TEMPERATURE AND PRESSURE

 CASE =                

             REACTANT                    WT FRACTION      ENERGY      TEMP
                                          (SEE NOTE)     KJ/KG-MOL      K  
 FUEL        H2                           1.0000000         0.000      0.000
 OXIDANT     H2                           1.0000000         0.000      0.000

 O/F=    1.00000  %FUEL= 50.000000  R,EQ.RATIO= 0.000000  PHI,EQ.RATIO=-1.000000

 THERMODYNAMIC PROPERTIES

 P, BAR           0.03900  0.03900  0.03900  0.03900  0.03900  0.03900  0.03900  0.03900
 T, K              850.00   855.00   860.00   865.00   870.00   875.00   880.00   885.00
 RHO, KG/CU M    1.1124-3 1.1059-3 1.0995-3 1.0931-3 1.0869-3 1.0807-3 1.0745-3 1.0684-3
 H, KJ/KG         8029.11  8102.90  8176.72  8250.56  8324.44  8398.35  8472.30  8546.27
 U, KJ/KG         4523.31  4576.47  4629.67  4682.89  4736.15  4789.44  4842.76  4896.11
 G, KJ/KG        -71377.8 -71845.1 -72312.8 -72781.0 -73249.6 -73718.6 -74188.1 -74658.0
 S, KJ/(KG)(K)    93.4199  93.5064  93.5925  93.6781  93.7633  93.8480  93.9323  94.0161

 M, (1/n)           2.016    2.016    2.016    2.016    2.016    2.016    2.016    2.016
 (dLV/dLP)t      -0.99999 -0.99999 -0.99999 -0.99999 -0.99999 -0.99999 -0.99999 -0.99999
 (dLV/dLT)p        1.0000   1.0000   1.0000   1.0000   1.0000   1.0000   1.0000   1.0000
 Cp, KJ/(KG)(K)   14.7543  14.7603  14.7664  14.7727  14.7790  14.7854  14.7919  14.7985
 GAMMAs            1.3880   1.3878   1.3876   1.3874   1.3871   1.3869   1.3867   1.3864
 SON VEL,M/SEC     2205.9   2212.2   2218.5   2224.8   2231.0   2237.2   2243.4   2249.6

 TRANSPORT PROPERTIES (GASES ONLY)
   CONDUCTIVITY IN UNITS OF MILLIWATTS/(CM)(K)

 VISC,MILLIPOISE  0.18329  0.18405  0.18481  0.18556  0.18632  0.18707  0.18782  0.18857

  WITH EQUILIBRIUM REACTIONS

 Cp, KJ/(KG)(K)   14.7543  14.7603  14.7664  14.7727  14.7790  14.7854  14.7919  14.7985
 CONDUCTIVITY      3.9150   3.9325   3.9500   3.9675   3.9850   4.0024   4.0199   4.0374
 PRANDTL NUMBER    0.6908   0.6908   0.6909   0.6909   0.6910   0.6911   0.6911   0.6912

  WITH FROZEN REACTIONS

 Cp, KJ/(KG)(K)   14.7543  14.7603  14.7664  14.7727  14.7790  14.7854  14.7919  14.7985
 CONDUCTIVITY      3.9150   3.9325   3.9500   3.9675   3.9850   4.0024   4.0199   4.0374
 PRANDTL NUMBER    0.6908   0.6908   0.6909   0.6909   0.6910   0.6911   0.6911   0.6912

 MASS FRACTIONS

 *H2              1.00000  1.00000  1.00000  1.00000  1.00000  1.00000  1.00000  1.00000

  * THERMODYNAMIC PROPERTIES FITTED TO 20000.K

 NOTE. WEIGHT FRACTION OF FUEL IN TOTAL FUELS AND OF OXIDANT IN TOTAL OXIDANTS









               THERMODYNAMIC EQUILIBRIUM PROPERTIES AT ASSIGNED

                           TEMPERATURE AND PRESSURE

 CASE =                

             REACTANT                    WT FRACTION      ENERGY      TEMP
                                          (SEE NOTE)     KJ/KG-MOL      K  
 FUEL        H2                           1.0000000         0.000      0.000
 OXIDANT     H2                           1.0000000         0.000      0.000

 O/F=    1.00000  %FUEL= 50.000000  R,EQ.RATIO= 0.000000  PHI,EQ.RATIO=-1.000000

 THERMODYNAMIC PROPERTIES

 P, BAR           0.03900  0.03900  0.04400  0.04400  0.04400  0.04400  0.04400  0.04400
 T, K              890.00   895.00   825.00   830.00   835.00   840.00   845.00   850.00
 RHO, KG/CU M    1.0624-3 1.0565-3 1.2931-3 1.2853-3 1.2776-3 1.2700-3 1.2625-3 1.2551-3
 H, KJ/KG         8620.28  8694.33  7660.63  7734.27  7807.93  7881.63  7955.36  8029.11
 U, KJ/KG         4949.50  5002.92  4257.93  4310.95  4363.99  4417.07  4470.17  4523.31
 G, KJ/KG        -75128.3 -75599.0 -68637.4 -69100.0 -69563.0 -70026.5 -70490.5 -70954.9
 S, KJ/(KG)(K)    94.0995  94.1824  92.4825  92.5714  92.6598  92.7478  92.8353  92.9223

 M, (1/n)           2.016    2.016    2.016    2.016    2.016    2.016    2.016    2.016
 (dLV/dLP)t      -0.99999 -0.99999 -0.99999 -0.99999 -0.99999 -0.99999 -0.99999 -0.99999
 (dLV/dLT)p        1.0000   1.0000   1.0000   1.0000   1.0000   1.0000   1.0000   1.0000
 Cp, KJ/(KG)(K)   14.8051  14.8119  14.7252  14.7308  14.7366  14.7424  14.7483  14.7543
 GAMMAs            1.3862   1.3859   1.3891   1.3889   1.3887   1.3885   1.3882   1.3880
 SON VEL,M/SEC     2255.7   2261.9   2174.1   2180.5   2186.9   2193.3   2199.6   2205.9

 TRANSPORT PROPERTIES (GASES ONLY)
   CONDUCTIVITY IN UNITS OF MILLIWATTS/(CM)(K)

 VISC,MILLIPOISE  0.18932  0.19007  0.17949  0.18025  0.18101  0.18177  0.18253  0.18329

  WITH EQUILIBRIUM REACTIONS

 Cp, KJ/(KG)(K)   14.8051  14.8119  14.7252  14.7308  14.7366  14.7424  14.7483  14.7543
 CONDUCTIVITY      4.0549   4.0724   3.8275   3.8450   3.8625   3.8800   3.8975   3.9150
 PRANDTL NUMBER    0.6913   0.6913   0.6905   0.6906   0.6906   0.6907   0.6907   0.6908

  WITH FROZEN REACTIONS

 Cp, KJ/(KG)(K)   14.8051  14.8119  14.7252  14.7308  14.7366  14.7424  14.7483  14.7543
 CONDUCTIVITY      4.0549   4.0724   3.8275   3.8450   3.8625   3.8800   3.8975   3.9150
 PRANDTL NUMBER    0.6913   0.6913   0.6905   0.6906   0.6906   0.6907   0.6907   0.6908

 MASS FRACTIONS

 *H2              1.00000  1.00000  1.00000  1.00000  1.00000  1.00000  1.00000  1.00000

  * THERMODYNAMIC PROPERTIES FITTED TO 20000.K

 NOTE. WEIGHT FRACTION OF FUEL IN TOTAL FUELS AND OF OXIDANT IN TOTAL OXIDANTS









               THERMODYNAMIC EQUILIBRIUM PROPERTIES AT ASSIGNED

                           TEMPERATURE AND PRESSURE

 CASE =                

             REACTANT                    WT FRACTION      ENERGY      TEMP
                                          (SEE NOTE)     KJ/KG-MOL      K  
 FUEL        H2                           1.0000000         0.000      0.000
 OXIDANT     H2                           1.0000000         0.000      0.000

 O/F=    1.00000  %FUEL= 50.000000  R,EQ.RATIO= 0.000000  PHI,EQ.RATIO=-1.000000

 THERMODYNAMIC PROPERTIES

 P, BAR           0.04400  0.04400  0.04400  0.04400  0.04400  0.04400  0.04400  0.04400
 T, K              855.00   860.00   865.00   870.00   875.00   880.00   885.00   890.00
 RHO, KG/CU M    1.2477-3 1.2405-3 1.2333-3 1.2262-3 1.2192-3 1.2123-3 1.2054-3 1.1987-3
 H, KJ/KG         8102.90  8176.72  8250.56  8324.44  8398.35  8472.30  8546.27  8620.28
 U, KJ/KG         4576.47  4629.67  4682.89  4736.15  4789.44  4842.76  4896.11  4949.50
 G, KJ/KG        -71419.7 -71885.0 -72350.6 -72816.8 -73283.3 -73750.3 -74217.7 -74685.5
 S, KJ/(KG)(K)    93.0089  93.0950  93.1806  93.2658  93.3505  93.4347  93.5186  93.6019

 M, (1/n)           2.016    2.016    2.016    2.016    2.016    2.016    2.016    2.016
 (dLV/dLP)t      -0.99999 -0.99999 -0.99999 -0.99999 -0.99999 -0.99999 -0.99999 -0.99999
 (dLV/dLT)p        1.0000   1.0000   1.0000   1.0000   1.0000   1.0000   1.0000   1.0000
 Cp, KJ/(KG)(K)   14.7603  14.7664  14.7727  14.7790  14.7854  14.7919  14.7985  14.8051
 GAMMAs            1.3878   1.3876   1.3874   1.3871   1.3869   1.3867   1.3864   1.3862
 SON VEL,M/SEC     2212.2   2218.5   2224.8   2231.0   2237.2   2243.4   2249.6   2255.7

 TRANSPORT PROPERTIES (GASES ONLY)
   CONDUCTIVITY IN UNITS OF MILLIWATTS/(CM)(K)

 VISC,MILLIPOISE  0.18405  0.18481  0.18556  0.18632  0.18707  0.18782  0.18857  0.18932

  WITH EQUILIBRIUM REACTIONS

 Cp, KJ/(KG)(K)   14.7603  14.7664  14.7727  14.7790  14.7854  14.7919  14.7985  14.8051
 CONDUCTIVITY      3.9325   3.9500   3.9675   3.9850   4.0024   4.0199   4.0374   4.0549
 PRANDTL NUMBER    0.6908   0.6909   0.6909   0.6910   0.6911   0.6911   0.6912   0.6913

  WITH FROZEN REACTIONS

 Cp, KJ/(KG)(K)   14.7603  14.7664  14.7727  14.7790  14.7854  14.7919  14.7985  14.8051
 CONDUCTIVITY      3.9325   3.9500   3.9675   3.9850   4.0024   4.0199   4.0374   4.0549
 PRANDTL NUMBER    0.6908   0.6909   0.6909   0.6910   0.6911   0.6911   0.6912   0.6913

 MASS FRACTIONS

 *H2              1.00000  1.00000  1.00000  1.00000  1.00000  1.00000  1.00000  1.00000

  * THERMODYNAMIC PROPERTIES FITTED TO 20000.K

 NOTE. WEIGHT FRACTION OF FUEL IN TOTAL FUELS AND OF OXIDANT IN TOTAL OXIDANTS









               THERMODYNAMIC EQUILIBRIUM PROPERTIES AT ASSIGNED

                           TEMPERATURE AND PRESSURE

 CASE =                

             REACTANT                    WT FRACTION      ENERGY      TEMP
                                          (SEE NOTE)     KJ/KG-MOL      K  
 FUEL        H2                           1.0000000         0.000      0.000
 OXIDANT     H2                           1.0000000         0.000      0.000

 O/F=    1.00000  %FUEL= 50.000000  R,EQ.RATIO= 0.000000  PHI,EQ.RATIO=-1.000000

 THERMODYNAMIC PROPERTIES

 P, BAR           0.04400  0.04900  0.04900  0.04900  0.04900  0.04900  0.04900  0.04900
 T, K              895.00   825.00   830.00   835.00   840.00   845.00   850.00   855.00
 RHO, KG/CU M    1.1920-3 1.4400-3 1.4314-3 1.4228-3 1.4143-3 1.4060-3 1.3977-3 1.3895-3
 H, KJ/KG         8694.33  7660.63  7734.27  7807.93  7881.63  7955.36  8029.11  8102.90
 U, KJ/KG         5002.92  4257.93  4310.95  4363.99  4417.07  4470.17  4523.31  4576.47
 G, KJ/KG        -75153.7 -68271.2 -68731.5 -69192.3 -69653.6 -70115.4 -70577.5 -71040.1
 S, KJ/(KG)(K)    93.6849  92.0385  92.1274  92.2159  92.3039  92.3914  92.4784  92.5650

 M, (1/n)           2.016    2.016    2.016    2.016    2.016    2.016    2.016    2.016
 (dLV/dLP)t      -0.99999 -0.99999 -0.99999 -0.99999 -0.99999 -0.99999 -0.99999 -0.99999
 (dLV/dLT)p        1.0000   1.0000   1.0000   1.0000   1.0000   1.0000   1.0000   1.0000
 Cp, KJ/(KG)(K)   14.8119  14.7252  14.7308  14.7366  14.7424  14.7483  14.7543  14.7603
 GAMMAs            1.3859   1.3891   1.3889   1.3887   1.3885   1.3882   1.3880   1.3878
 SON VEL,M/SEC     2261.9   2174.1   2180.5   2186.9   2193.3   2199.6   2205.9   2212.2

 TRANSPORT PROPERTIES (GASES ONLY)
   CONDUCTIVITY IN UNITS OF MILLIWATTS/(CM)(K)

 VISC,MILLIPOISE  0.19007  0.17949  0.18025  0.18101  0.18177  0.18253  0.18329  0.18405

  WITH EQUILIBRIUM REACTIONS

 Cp, KJ/(KG)(K)   14.8119  14.7252  14.7308  14.7366  14.7424  14.7483  14.7543  14.7603
 CONDUCTIVITY      4.0724   3.8275   3.8450   3.8625   3.8800   3.8975   3.9150   3.9325
 PRANDTL NUMBER    0.6913   0.6905   0.6906   0.6906   0.6907   0.6907   0.6908   0.6908

  WITH FROZEN REACTIONS

 Cp, KJ/(KG)(K)   14.8119  14.7252  14.7308  14.7366  14.7424  14.7483  14.7543  14.7603
 CONDUCTIVITY      4.0724   3.8275   3.8450   3.8625   3.8800   3.8975   3.9150   3.9325
 PRANDTL NUMBER    0.6913   0.6905   0.6906   0.6906   0.6907   0.6907   0.6908   0.6908

 MASS FRACTIONS

 *H2              1.00000  1.00000  1.00000  1.00000  1.00000  1.00000  1.00000  1.00000

  * THERMODYNAMIC PROPERTIES FITTED TO 20000.K

 NOTE. WEIGHT FRACTION OF FUEL IN TOTAL FUELS AND OF OXIDANT IN TOTAL OXIDANTS









               THERMODYNAMIC EQUILIBRIUM PROPERTIES AT ASSIGNED

                           TEMPERATURE AND PRESSURE

 CASE =                

             REACTANT                    WT FRACTION      ENERGY      TEMP
                                          (SEE NOTE)     KJ/KG-MOL      K  
 FUEL        H2                           1.0000000         0.000      0.000
 OXIDANT     H2                           1.0000000         0.000      0.000

 O/F=    1.00000  %FUEL= 50.000000  R,EQ.RATIO= 0.000000  PHI,EQ.RATIO=-1.000000

 THERMODYNAMIC PROPERTIES

 P, BAR           0.04900  0.04900  0.04900  0.04900  0.04900  0.04900  0.04900  0.04900
 T, K              860.00   865.00   870.00   875.00   880.00   885.00   890.00   895.00
 RHO, KG/CU M    1.3814-3 1.3734-3 1.3656-3 1.3577-3 1.3500-3 1.3424-3 1.3349-3 1.3274-3
 H, KJ/KG         8176.72  8250.56  8324.44  8398.35  8472.30  8546.27  8620.28  8694.33
 U, KJ/KG         4629.67  4682.89  4736.15  4789.44  4842.76  4896.11  4949.50  5002.92
 G, KJ/KG        -71503.2 -71966.7 -72430.6 -72894.9 -73359.6 -73824.8 -74290.4 -74756.4
 S, KJ/(KG)(K)    92.6510  92.7367  92.8218  92.9065  92.9908  93.0746  93.1580  93.2410

 M, (1/n)           2.016    2.016    2.016    2.016    2.016    2.016    2.016    2.016
 (dLV/dLP)t      -0.99999 -0.99999 -0.99999 -0.99999 -0.99999 -0.99999 -0.99999 -0.99999
 (dLV/dLT)p        1.0000   1.0000   1.0000   1.0000   1.0000   1.0000   1.0000   1.0000
 Cp, KJ/(KG)(K)   14.7664  14.7727  14.7790  14.7854  14.7919  14.7985  14.8051  14.8119
 GAMMAs            1.3876   1.3874   1.3871   1.3869   1.3867   1.3864   1.3862   1.3859
 SON VEL,M/SEC     2218.5   2224.8   2231.0   2237.2   2243.4   2249.6   2255.7   2261.9

 TRANSPORT PROPERTIES (GASES ONLY)
   CONDUCTIVITY IN UNITS OF MILLIWATTS/(CM)(K)

 VISC,MILLIPOISE  0.18481  0.18556  0.18632  0.18707  0.18782  0.18857  0.18932  0.19007

  WITH EQUILIBRIUM REACTIONS

 Cp, KJ/(KG)(K)   14.7664  14.7727  14.7790  14.7854  14.7919  14.7985  14.8051  14.8119
 CONDUCTIVITY      3.9500   3.9675   3.9850   4.0024   4.0199   4.0374   4.0549   4.0724
 PRANDTL NUMBER    0.6909   0.6909   0.6910   0.6911   0.6911   0.6912   0.6913   0.6913

  WITH FROZEN REACTIONS

 Cp, KJ/(KG)(K)   14.7664  14.7727  14.7790  14.7854  14.7919  14.7985  14.8051  14.8119
 CONDUCTIVITY      3.9500   3.9675   3.9850   4.0024   4.0199   4.0374   4.0549   4.0724
 PRANDTL NUMBER    0.6909   0.6909   0.6910   0.6911   0.6911   0.6912   0.6913   0.6913

 MASS FRACTIONS

 *H2              1.00000  1.00000  1.00000  1.00000  1.00000  1.00000  1.00000  1.00000

  * THERMODYNAMIC PROPERTIES FITTED TO 20000.K

 NOTE. WEIGHT FRACTION OF FUEL IN TOTAL FUELS AND OF OXIDANT IN TOTAL OXIDANTS









               THERMODYNAMIC EQUILIBRIUM PROPERTIES AT ASSIGNED

                           TEMPERATURE AND PRESSURE

 CASE =                

             REACTANT                    WT FRACTION      ENERGY      TEMP
                                          (SEE NOTE)     KJ/KG-MOL      K  
 FUEL        H2                           1.0000000         0.000      0.000
 OXIDANT     H2                           1.0000000         0.000      0.000

 O/F=    1.00000  %FUEL= 50.000000  R,EQ.RATIO= 0.000000  PHI,EQ.RATIO=-1.000000

 THERMODYNAMIC PROPERTIES

 P, BAR           0.05400  0.05400  0.05400  0.05400  0.05400  0.05400  0.05400  0.05400
 T, K              825.00   830.00   835.00   840.00   845.00   850.00   855.00   860.00
 RHO, KG/CU M    1.5870-3 1.5774-3 1.5680-3 1.5586-3 1.5494-3 1.5403-3 1.5313-3 1.5224-3
 H, KJ/KG         7660.63  7734.27  7807.93  7881.63  7955.36  8029.11  8102.90  8176.72
 U, KJ/KG         4257.93  4310.95  4363.99  4417.07  4470.17  4523.31  4576.47  4629.67
 G, KJ/KG        -67940.5 -68398.9 -68857.7 -69317.0 -69776.7 -70236.9 -70697.5 -71158.5
 S, KJ/(KG)(K)    91.6378  91.7267  91.8151  91.9031  91.9906  92.0777  92.1642  92.2503

 M, (1/n)           2.016    2.016    2.016    2.016    2.016    2.016    2.016    2.016
 (dLV/dLP)t      -0.99999 -0.99999 -0.99999 -0.99999 -0.99999 -0.99999 -0.99999 -0.99999
 (dLV/dLT)p        1.0000   1.0000   1.0000   1.0000   1.0000   1.0000   1.0000   1.0000
 Cp, KJ/(KG)(K)   14.7252  14.7308  14.7366  14.7424  14.7483  14.7543  14.7603  14.7664
 GAMMAs            1.3891   1.3889   1.3887   1.3885   1.3882   1.3880   1.3878   1.3876
 SON VEL,M/SEC     2174.1   2180.5   2186.9   2193.3   2199.6   2205.9   2212.2   2218.5

 TRANSPORT PROPERTIES (GASES ONLY)
   CONDUCTIVITY IN UNITS OF MILLIWATTS/(CM)(K)

 VISC,MILLIPOISE  0.17949  0.18025  0.18101  0.18177  0.18253  0.18329  0.18405  0.18481

  WITH EQUILIBRIUM REACTIONS

 Cp, KJ/(KG)(K)   14.7252  14.7308  14.7366  14.7424  14.7483  14.7543  14.7603  14.7664
 CONDUCTIVITY      3.8275   3.8450   3.8625   3.8800   3.8975   3.9150   3.9325   3.9500
 PRANDTL NUMBER    0.6905   0.6906   0.6906   0.6907   0.6907   0.6908   0.6908   0.6909

  WITH FROZEN REACTIONS

 Cp, KJ/(KG)(K)   14.7252  14.7308  14.7366  14.7424  14.7483  14.7543  14.7603  14.7664
 CONDUCTIVITY      3.8275   3.8450   3.8625   3.8800   3.8975   3.9150   3.9325   3.9500
 PRANDTL NUMBER    0.6905   0.6906   0.6906   0.6907   0.6907   0.6908   0.6908   0.6909

 MASS FRACTIONS

 *H2              1.00000  1.00000  1.00000  1.00000  1.00000  1.00000  1.00000  1.00000

  * THERMODYNAMIC PROPERTIES FITTED TO 20000.K

 NOTE. WEIGHT FRACTION OF FUEL IN TOTAL FUELS AND OF OXIDANT IN TOTAL OXIDANTS









               THERMODYNAMIC EQUILIBRIUM PROPERTIES AT ASSIGNED

                           TEMPERATURE AND PRESSURE

 CASE =                

             REACTANT                    WT FRACTION      ENERGY      TEMP
                                          (SEE NOTE)     KJ/KG-MOL      K  
 FUEL        H2                           1.0000000         0.000      0.000
 OXIDANT     H2                           1.0000000         0.000      0.000

 O/F=    1.00000  %FUEL= 50.000000  R,EQ.RATIO= 0.000000  PHI,EQ.RATIO=-1.000000

 THERMODYNAMIC PROPERTIES

 P, BAR           0.05400  0.05400  0.05400  0.05400  0.05400  0.05400  0.05400  0.06000
 T, K              865.00   870.00   875.00   880.00   885.00   890.00   895.00   825.00
 RHO, KG/CU M    1.5136-3 1.5049-3 1.4963-3 1.4878-3 1.4794-3 1.4711-3 1.4629-3 1.7633-3
 H, KJ/KG         8250.56  8324.44  8398.35  8472.30  8546.27  8620.28  8694.33  7660.63
 U, KJ/KG         4682.89  4736.15  4789.44  4842.76  4896.11  4949.50  5002.92  4257.93
 G, KJ/KG        -71620.0 -72081.9 -72544.2 -73007.0 -73470.1 -73933.7 -74397.7 -67582.0
 S, KJ/(KG)(K)    92.3359  92.4211  92.5058  92.5901  92.6739  92.7573  92.8402  91.2032

 M, (1/n)           2.016    2.016    2.016    2.016    2.016    2.016    2.016    2.016
 (dLV/dLP)t      -0.99999 -0.99999 -0.99999 -0.99999 -0.99999 -0.99999 -0.99999 -0.99999
 (dLV/dLT)p        1.0000   1.0000   1.0000   1.0000   1.0000   1.0000   1.0000   1.0000
 Cp, KJ/(KG)(K)   14.7727  14.7790  14.7854  14.7919  14.7985  14.8051  14.8119  14.7252
 GAMMAs            1.3874   1.3871   1.3869   1.3867   1.3864   1.3862   1.3859   1.3891
 SON VEL,M/SEC     2224.8   2231.0   2237.2   2243.4   2249.6   2255.7   2261.9   2174.1

 TRANSPORT PROPERTIES (GASES ONLY)
   CONDUCTIVITY IN UNITS OF MILLIWATTS/(CM)(K)

 VISC,MILLIPOISE  0.18556  0.18632  0.18707  0.18782  0.18857  0.18932  0.19007  0.17949

  WITH EQUILIBRIUM REACTIONS

 Cp, KJ/(KG)(K)   14.7727  14.7790  14.7854  14.7919  14.7985  14.8051  14.8119  14.7252
 CONDUCTIVITY      3.9675   3.9850   4.0024   4.0199   4.0374   4.0549   4.0724   3.8275
 PRANDTL NUMBER    0.6909   0.6910   0.6911   0.6911   0.6912   0.6913   0.6913   0.6905

  WITH FROZEN REACTIONS

 Cp, KJ/(KG)(K)   14.7727  14.7790  14.7854  14.7919  14.7985  14.8051  14.8119  14.7252
 CONDUCTIVITY      3.9675   3.9850   4.0024   4.0199   4.0374   4.0549   4.0724   3.8275
 PRANDTL NUMBER    0.6909   0.6910   0.6911   0.6911   0.6912   0.6913   0.6913   0.6905

 MASS FRACTIONS

 *H2              1.00000  1.00000  1.00000  1.00000  1.00000  1.00000  1.00000  1.00000

  * THERMODYNAMIC PROPERTIES FITTED TO 20000.K

 NOTE. WEIGHT FRACTION OF FUEL IN TOTAL FUELS AND OF OXIDANT IN TOTAL OXIDANTS









               THERMODYNAMIC EQUILIBRIUM PROPERTIES AT ASSIGNED

                           TEMPERATURE AND PRESSURE

 CASE =                

             REACTANT                    WT FRACTION      ENERGY      TEMP
                                          (SEE NOTE)     KJ/KG-MOL      K  
 FUEL        H2                           1.0000000         0.000      0.000
 OXIDANT     H2                           1.0000000         0.000      0.000

 O/F=    1.00000  %FUEL= 50.000000  R,EQ.RATIO= 0.000000  PHI,EQ.RATIO=-1.000000

 THERMODYNAMIC PROPERTIES

 P, BAR           0.06000  0.06000  0.06000  0.06000  0.06000  0.06000  0.06000  0.06000
 T, K              830.00   835.00   840.00   845.00   850.00   855.00   860.00   865.00
 RHO, KG/CU M    1.7527-3 1.7422-3 1.7318-3 1.7216-3 1.7114-3 1.7014-3 1.6915-3 1.6818-3
 H, KJ/KG         7734.27  7807.93  7881.63  7955.36  8029.11  8102.90  8176.72  8250.56
 U, KJ/KG         4310.95  4363.99  4417.07  4470.17  4523.31  4576.47  4629.67  4682.89
 G, KJ/KG        -68038.2 -68494.9 -68952.0 -69409.5 -69867.5 -70326.0 -70784.8 -71244.1
 S, KJ/(KG)(K)    91.2921  91.3806  91.4686  91.5561  91.6431  91.7297  91.8157  91.9014

 M, (1/n)           2.016    2.016    2.016    2.016    2.016    2.016    2.016    2.016
 (dLV/dLP)t      -0.99999 -0.99999 -0.99999 -0.99999 -0.99999 -0.99999 -0.99999 -0.99999
 (dLV/dLT)p        1.0000   1.0000   1.0000   1.0000   1.0000   1.0000   1.0000   1.0000
 Cp, KJ/(KG)(K)   14.7308  14.7366  14.7424  14.7483  14.7543  14.7603  14.7664  14.7727
 GAMMAs            1.3889   1.3887   1.3885   1.3882   1.3880   1.3878   1.3876   1.3874
 SON VEL,M/SEC     2180.5   2186.9   2193.3   2199.6   2205.9   2212.2   2218.5   2224.8

 TRANSPORT PROPERTIES (GASES ONLY)
   CONDUCTIVITY IN UNITS OF MILLIWATTS/(CM)(K)

 VISC,MILLIPOISE  0.18025  0.18101  0.18177  0.18253  0.18329  0.18405  0.18481  0.18556

  WITH EQUILIBRIUM REACTIONS

 Cp, KJ/(KG)(K)   14.7308  14.7366  14.7424  14.7483  14.7543  14.7603  14.7664  14.7727
 CONDUCTIVITY      3.8450   3.8625   3.8800   3.8975   3.9150   3.9325   3.9500   3.9675
 PRANDTL NUMBER    0.6906   0.6906   0.6907   0.6907   0.6908   0.6908   0.6909   0.6909

  WITH FROZEN REACTIONS

 Cp, KJ/(KG)(K)   14.7308  14.7366  14.7424  14.7483  14.7543  14.7603  14.7664  14.7727
 CONDUCTIVITY      3.8450   3.8625   3.8800   3.8975   3.9150   3.9325   3.9500   3.9675
 PRANDTL NUMBER    0.6906   0.6906   0.6907   0.6907   0.6908   0.6908   0.6909   0.6909

 MASS FRACTIONS

 *H2              1.00000  1.00000  1.00000  1.00000  1.00000  1.00000  1.00000  1.00000

  * THERMODYNAMIC PROPERTIES FITTED TO 20000.K

 NOTE. WEIGHT FRACTION OF FUEL IN TOTAL FUELS AND OF OXIDANT IN TOTAL OXIDANTS









               THERMODYNAMIC EQUILIBRIUM PROPERTIES AT ASSIGNED

                           TEMPERATURE AND PRESSURE

 CASE =                

             REACTANT                    WT FRACTION      ENERGY      TEMP
                                          (SEE NOTE)     KJ/KG-MOL      K  
 FUEL        H2                           1.0000000         0.000      0.000
 OXIDANT     H2                           1.0000000         0.000      0.000

 O/F=    1.00000  %FUEL= 50.000000  R,EQ.RATIO= 0.000000  PHI,EQ.RATIO=-1.000000

 THERMODYNAMIC PROPERTIES

 P, BAR           0.06000  0.06000  0.06000  0.06000  0.06000  0.06000  0.06700  0.06700
 T, K              870.00   875.00   880.00   885.00   890.00   895.00   825.00   830.00
 RHO, KG/CU M    1.6721-3 1.6625-3 1.6531-3 1.6438-3 1.6345-3 1.6254-3 1.9690-3 1.9572-3
 H, KJ/KG         8324.44  8398.35  8472.30  8546.27  8620.28  8694.33  7660.63  7734.27
 U, KJ/KG         4736.15  4789.44  4842.76  4896.11  4949.50  5002.92  4257.93  4310.95
 G, KJ/KG        -71703.8 -72164.0 -72624.5 -73085.5 -73546.9 -74008.8 -67206.5 -67660.4
 S, KJ/(KG)(K)    91.9865  92.0712  92.1555  92.2393  92.3227  92.4057  90.7481  90.8370

 M, (1/n)           2.016    2.016    2.016    2.016    2.016    2.016    2.016    2.016
 (dLV/dLP)t      -0.99999 -0.99999 -0.99999 -0.99999 -0.99999 -0.99999 -0.99999 -0.99999
 (dLV/dLT)p        1.0000   1.0000   1.0000   1.0000   1.0000   1.0000   1.0000   1.0000
 Cp, KJ/(KG)(K)   14.7790  14.7854  14.7919  14.7985  14.8051  14.8119  14.7252  14.7308
 GAMMAs            1.3871   1.3869   1.3867   1.3864   1.3862   1.3859   1.3891   1.3889
 SON VEL,M/SEC     2231.0   2237.2   2243.4   2249.6   2255.7   2261.9   2174.1   2180.5

 TRANSPORT PROPERTIES (GASES ONLY)
   CONDUCTIVITY IN UNITS OF MILLIWATTS/(CM)(K)

 VISC,MILLIPOISE  0.18632  0.18707  0.18782  0.18857  0.18932  0.19007  0.17949  0.18025

  WITH EQUILIBRIUM REACTIONS

 Cp, KJ/(KG)(K)   14.7790  14.7854  14.7919  14.7985  14.8051  14.8119  14.7252  14.7308
 CONDUCTIVITY      3.9850   4.0024   4.0199   4.0374   4.0549   4.0724   3.8275   3.8450
 PRANDTL NUMBER    0.6910   0.6911   0.6911   0.6912   0.6913   0.6913   0.6905   0.6906

  WITH FROZEN REACTIONS

 Cp, KJ/(KG)(K)   14.7790  14.7854  14.7919  14.7985  14.8051  14.8119  14.7252  14.7308
 CONDUCTIVITY      3.9850   4.0024   4.0199   4.0374   4.0549   4.0724   3.8275   3.8450
 PRANDTL NUMBER    0.6910   0.6911   0.6911   0.6912   0.6913   0.6913   0.6905   0.6906

 MASS FRACTIONS

 *H2              1.00000  1.00000  1.00000  1.00000  1.00000  1.00000  1.00000  1.00000

  * THERMODYNAMIC PROPERTIES FITTED TO 20000.K

 NOTE. WEIGHT FRACTION OF FUEL IN TOTAL FUELS AND OF OXIDANT IN TOTAL OXIDANTS









               THERMODYNAMIC EQUILIBRIUM PROPERTIES AT ASSIGNED

                           TEMPERATURE AND PRESSURE

 CASE =                

             REACTANT                    WT FRACTION      ENERGY      TEMP
                                          (SEE NOTE)     KJ/KG-MOL      K  
 FUEL        H2                           1.0000000         0.000      0.000
 OXIDANT     H2                           1.0000000         0.000      0.000

 O/F=    1.00000  %FUEL= 50.000000  R,EQ.RATIO= 0.000000  PHI,EQ.RATIO=-1.000000

 THERMODYNAMIC PROPERTIES

 P, BAR           0.06700  0.06700  0.06700  0.06700  0.06700  0.06700  0.06700  0.06700
 T, K              835.00   840.00   845.00   850.00   855.00   860.00   865.00   870.00
 RHO, KG/CU M    1.9454-3 1.9339-3 1.9224-3 1.9111-3 1.8999-3 1.8889-3 1.8780-3 1.8672-3
 H, KJ/KG         7807.93  7881.63  7955.36  8029.11  8102.90  8176.72  8250.56  8324.44
 U, KJ/KG         4363.99  4417.07  4470.17  4523.31  4576.47  4629.67  4682.89  4736.15
 G, KJ/KG        -68114.8 -68569.7 -69024.9 -69480.7 -69936.8 -70393.4 -70850.4 -71307.9
 S, KJ/(KG)(K)    90.9255  91.0134  91.1009  91.1880  91.2745  91.3606  91.4462  91.5314

 M, (1/n)           2.016    2.016    2.016    2.016    2.016    2.016    2.016    2.016
 (dLV/dLP)t      -0.99999 -0.99999 -0.99999 -0.99999 -0.99999 -0.99999 -0.99999 -0.99999
 (dLV/dLT)p        1.0000   1.0000   1.0000   1.0000   1.0000   1.0000   1.0000   1.0000
 Cp, KJ/(KG)(K)   14.7366  14.7424  14.7483  14.7543  14.7603  14.7664  14.7727  14.7790
 GAMMAs            1.3887   1.3885   1.3882   1.3880   1.3878   1.3876   1.3874   1.3871
 SON VEL,M/SEC     2186.9   2193.3   2199.6   2205.9   2212.2   2218.5   2224.8   2231.0

 TRANSPORT PROPERTIES (GASES ONLY)
   CONDUCTIVITY IN UNITS OF MILLIWATTS/(CM)(K)

 VISC,MILLIPOISE  0.18101  0.18177  0.18253  0.18329  0.18405  0.18481  0.18556  0.18632

  WITH EQUILIBRIUM REACTIONS

 Cp, KJ/(KG)(K)   14.7366  14.7424  14.7483  14.7543  14.7603  14.7664  14.7727  14.7790
 CONDUCTIVITY      3.8625   3.8800   3.8975   3.9150   3.9325   3.9500   3.9675   3.9850
 PRANDTL NUMBER    0.6906   0.6907   0.6907   0.6908   0.6908   0.6909   0.6909   0.6910

  WITH FROZEN REACTIONS

 Cp, KJ/(KG)(K)   14.7366  14.7424  14.7483  14.7543  14.7603  14.7664  14.7727  14.7790
 CONDUCTIVITY      3.8625   3.8800   3.8975   3.9150   3.9325   3.9500   3.9675   3.9850
 PRANDTL NUMBER    0.6906   0.6907   0.6907   0.6908   0.6908   0.6909   0.6909   0.6910

 MASS FRACTIONS

 *H2              1.00000  1.00000  1.00000  1.00000  1.00000  1.00000  1.00000  1.00000

  * THERMODYNAMIC PROPERTIES FITTED TO 20000.K

 NOTE. WEIGHT FRACTION OF FUEL IN TOTAL FUELS AND OF OXIDANT IN TOTAL OXIDANTS









               THERMODYNAMIC EQUILIBRIUM PROPERTIES AT ASSIGNED

                           TEMPERATURE AND PRESSURE

 CASE =                

             REACTANT                    WT FRACTION      ENERGY      TEMP
                                          (SEE NOTE)     KJ/KG-MOL      K  
 FUEL        H2                           1.0000000         0.000      0.000
 OXIDANT     H2                           1.0000000         0.000      0.000

 O/F=    1.00000  %FUEL= 50.000000  R,EQ.RATIO= 0.000000  PHI,EQ.RATIO=-1.000000

 THERMODYNAMIC PROPERTIES

 P, BAR           0.06700  0.06700  0.06700  0.06700  0.06700  0.07400  0.07400  0.07400
 T, K              875.00   880.00   885.00   890.00   895.00   825.00   830.00   835.00
 RHO, KG/CU M    1.8565-3 1.8460-3 1.8355-3 1.8252-3 1.8150-3 2.1747-3 2.1616-3 2.1487-3
 H, KJ/KG         8398.35  8472.30  8546.27  8620.28  8694.33  7660.63  7734.27  7807.93
 U, KJ/KG         4789.44  4842.76  4896.11  4949.50  5002.92  4257.93  4310.95  4363.99
 G, KJ/KG        -71765.7 -72224.0 -72682.7 -73141.9 -73601.4 -66868.4 -67320.3 -67772.6
 S, KJ/(KG)(K)    91.6161  91.7004  91.7842  91.8676  91.9505  90.3382  90.4271  90.5156

 M, (1/n)           2.016    2.016    2.016    2.016    2.016    2.016    2.016    2.016
 (dLV/dLP)t      -0.99999 -0.99999 -0.99999 -0.99999 -0.99999 -0.99999 -0.99999 -0.99999
 (dLV/dLT)p        1.0000   1.0000   1.0000   1.0000   1.0000   1.0000   1.0000   1.0000
 Cp, KJ/(KG)(K)   14.7854  14.7919  14.7985  14.8051  14.8119  14.7252  14.7308  14.7366
 GAMMAs            1.3869   1.3867   1.3864   1.3862   1.3859   1.3891   1.3889   1.3887
 SON VEL,M/SEC     2237.2   2243.4   2249.6   2255.7   2261.9   2174.1   2180.5   2186.9

 TRANSPORT PROPERTIES (GASES ONLY)
   CONDUCTIVITY IN UNITS OF MILLIWATTS/(CM)(K)

 VISC,MILLIPOISE  0.18707  0.18782  0.18857  0.18932  0.19007  0.17949  0.18025  0.18101

  WITH EQUILIBRIUM REACTIONS

 Cp, KJ/(KG)(K)   14.7854  14.7919  14.7985  14.8051  14.8119  14.7252  14.7308  14.7366
 CONDUCTIVITY      4.0024   4.0199   4.0374   4.0549   4.0724   3.8275   3.8450   3.8625
 PRANDTL NUMBER    0.6911   0.6911   0.6912   0.6913   0.6913   0.6905   0.6906   0.6906

  WITH FROZEN REACTIONS

 Cp, KJ/(KG)(K)   14.7854  14.7919  14.7985  14.8051  14.8119  14.7252  14.7308  14.7366
 CONDUCTIVITY      4.0024   4.0199   4.0374   4.0549   4.0724   3.8275   3.8450   3.8625
 PRANDTL NUMBER    0.6911   0.6911   0.6912   0.6913   0.6913   0.6905   0.6906   0.6906

 MASS FRACTIONS

 *H2              1.00000  1.00000  1.00000  1.00000  1.00000  1.00000  1.00000  1.00000

  * THERMODYNAMIC PROPERTIES FITTED TO 20000.K

 NOTE. WEIGHT FRACTION OF FUEL IN TOTAL FUELS AND OF OXIDANT IN TOTAL OXIDANTS









               THERMODYNAMIC EQUILIBRIUM PROPERTIES AT ASSIGNED

                           TEMPERATURE AND PRESSURE

 CASE =                

             REACTANT                    WT FRACTION      ENERGY      TEMP
                                          (SEE NOTE)     KJ/KG-MOL      K  
 FUEL        H2                           1.0000000         0.000      0.000
 OXIDANT     H2                           1.0000000         0.000      0.000

 O/F=    1.00000  %FUEL= 50.000000  R,EQ.RATIO= 0.000000  PHI,EQ.RATIO=-1.000000

 THERMODYNAMIC PROPERTIES

 P, BAR           0.07400  0.07400  0.07400  0.07400  0.07400  0.07400  0.07400  0.07400
 T, K              840.00   845.00   850.00   855.00   860.00   865.00   870.00   875.00
 RHO, KG/CU M    2.1359-3 2.1233-3 2.1108-3 2.0984-3 2.0862-3 2.0742-3 2.0623-3 2.0505-3
 H, KJ/KG         7881.63  7955.36  8029.11  8102.90  8176.72  8250.56  8324.44  8398.35
 U, KJ/KG         4417.07  4470.17  4523.31  4576.47  4629.67  4682.89  4736.15  4789.44
 G, KJ/KG        -68225.4 -68678.6 -69132.3 -69586.4 -70040.9 -70495.9 -70951.3 -71407.1
 S, KJ/(KG)(K)    90.6036  90.6911  90.7781  90.8647  90.9507  91.0364  91.1215  91.2062

 M, (1/n)           2.016    2.016    2.016    2.016    2.016    2.016    2.016    2.016
 (dLV/dLP)t      -0.99999 -0.99999 -0.99999 -0.99999 -0.99999 -0.99999 -0.99999 -0.99999
 (dLV/dLT)p        1.0000   1.0000   1.0000   1.0000   1.0000   1.0000   1.0000   1.0000
 Cp, KJ/(KG)(K)   14.7424  14.7483  14.7543  14.7603  14.7664  14.7727  14.7790  14.7854
 GAMMAs            1.3885   1.3882   1.3880   1.3878   1.3876   1.3874   1.3871   1.3869
 SON VEL,M/SEC     2193.3   2199.6   2205.9   2212.2   2218.5   2224.8   2231.0   2237.2

 TRANSPORT PROPERTIES (GASES ONLY)
   CONDUCTIVITY IN UNITS OF MILLIWATTS/(CM)(K)

 VISC,MILLIPOISE  0.18177  0.18253  0.18329  0.18405  0.18481  0.18556  0.18632  0.18707

  WITH EQUILIBRIUM REACTIONS

 Cp, KJ/(KG)(K)   14.7424  14.7483  14.7543  14.7603  14.7664  14.7727  14.7790  14.7854
 CONDUCTIVITY      3.8800   3.8975   3.9150   3.9325   3.9500   3.9675   3.9850   4.0024
 PRANDTL NUMBER    0.6907   0.6907   0.6908   0.6908   0.6909   0.6909   0.6910   0.6911

  WITH FROZEN REACTIONS

 Cp, KJ/(KG)(K)   14.7424  14.7483  14.7543  14.7603  14.7664  14.7727  14.7790  14.7854
 CONDUCTIVITY      3.8800   3.8975   3.9150   3.9325   3.9500   3.9675   3.9850   4.0024
 PRANDTL NUMBER    0.6907   0.6907   0.6908   0.6908   0.6909   0.6909   0.6910   0.6911

 MASS FRACTIONS

 *H2              1.00000  1.00000  1.00000  1.00000  1.00000  1.00000  1.00000  1.00000

  * THERMODYNAMIC PROPERTIES FITTED TO 20000.K

 NOTE. WEIGHT FRACTION OF FUEL IN TOTAL FUELS AND OF OXIDANT IN TOTAL OXIDANTS









               THERMODYNAMIC EQUILIBRIUM PROPERTIES AT ASSIGNED

                           TEMPERATURE AND PRESSURE

 CASE =                

             REACTANT                    WT FRACTION      ENERGY      TEMP
                                          (SEE NOTE)     KJ/KG-MOL      K  
 FUEL        H2                           1.0000000         0.000      0.000
 OXIDANT     H2                           1.0000000         0.000      0.000

 O/F=    1.00000  %FUEL= 50.000000  R,EQ.RATIO= 0.000000  PHI,EQ.RATIO=-1.000000

 THERMODYNAMIC PROPERTIES

 P, BAR           0.07400  0.07400  0.07400  0.07400  0.08250  0.08250  0.08250  0.08250
 T, K              880.00   885.00   890.00   895.00   825.00   830.00   835.00   840.00
 RHO, KG/CU M    2.0388-3 2.0273-3 2.0159-3 2.0047-3 2.4245-3 2.4099-3 2.3955-3 2.3813-3
 H, KJ/KG         8472.30  8546.27  8620.28  8694.33  7660.63  7734.27  7807.93  7881.63
 U, KJ/KG         4842.76  4896.11  4949.50  5002.92  4257.93  4310.95  4363.99  4417.07
 G, KJ/KG        -71863.3 -72320.0 -72777.1 -73234.6 -66498.4 -66948.0 -67398.1 -67848.7
 S, KJ/(KG)(K)    91.2905  91.3743  91.4577  91.5407  89.8898  89.9787  90.0671  90.1551

 M, (1/n)           2.016    2.016    2.016    2.016    2.016    2.016    2.016    2.016
 (dLV/dLP)t      -0.99999 -0.99999 -0.99999 -0.99999 -0.99999 -0.99999 -0.99999 -0.99999
 (dLV/dLT)p        1.0000   1.0000   1.0000   1.0000   1.0000   1.0000   1.0000   1.0000
 Cp, KJ/(KG)(K)   14.7919  14.7985  14.8051  14.8119  14.7252  14.7308  14.7366  14.7424
 GAMMAs            1.3867   1.3864   1.3862   1.3859   1.3891   1.3889   1.3887   1.3885
 SON VEL,M/SEC     2243.4   2249.6   2255.7   2261.9   2174.1   2180.5   2186.9   2193.3

 TRANSPORT PROPERTIES (GASES ONLY)
   CONDUCTIVITY IN UNITS OF MILLIWATTS/(CM)(K)

 VISC,MILLIPOISE  0.18782  0.18857  0.18932  0.19007  0.17949  0.18025  0.18101  0.18177

  WITH EQUILIBRIUM REACTIONS

 Cp, KJ/(KG)(K)   14.7919  14.7985  14.8051  14.8119  14.7252  14.7308  14.7366  14.7424
 CONDUCTIVITY      4.0199   4.0374   4.0549   4.0724   3.8275   3.8450   3.8625   3.8800
 PRANDTL NUMBER    0.6911   0.6912   0.6913   0.6913   0.6905   0.6906   0.6906   0.6907

  WITH FROZEN REACTIONS

 Cp, KJ/(KG)(K)   14.7919  14.7985  14.8051  14.8119  14.7252  14.7308  14.7366  14.7424
 CONDUCTIVITY      4.0199   4.0374   4.0549   4.0724   3.8275   3.8450   3.8625   3.8800
 PRANDTL NUMBER    0.6911   0.6912   0.6913   0.6913   0.6905   0.6906   0.6906   0.6907

 MASS FRACTIONS

 *H2              1.00000  1.00000  1.00000  1.00000  1.00000  1.00000  1.00000  1.00000

  * THERMODYNAMIC PROPERTIES FITTED TO 20000.K

 NOTE. WEIGHT FRACTION OF FUEL IN TOTAL FUELS AND OF OXIDANT IN TOTAL OXIDANTS









               THERMODYNAMIC EQUILIBRIUM PROPERTIES AT ASSIGNED

                           TEMPERATURE AND PRESSURE

 CASE =                

             REACTANT                    WT FRACTION      ENERGY      TEMP
                                          (SEE NOTE)     KJ/KG-MOL      K  
 FUEL        H2                           1.0000000         0.000      0.000
 OXIDANT     H2                           1.0000000         0.000      0.000

 O/F=    1.00000  %FUEL= 50.000000  R,EQ.RATIO= 0.000000  PHI,EQ.RATIO=-1.000000

 THERMODYNAMIC PROPERTIES

 P, BAR           0.08250  0.08250  0.08250  0.08250  0.08250  0.08250  0.08250  0.08250
 T, K              845.00   850.00   855.00   860.00   865.00   870.00   875.00   880.00
 RHO, KG/CU M    2.3672-3 2.3532-3 2.3395-3 2.3259-3 2.3124-3 2.2991-3 2.2860-3 2.2730-3
 H, KJ/KG         7955.36  8029.11  8102.90  8176.72  8250.56  8324.44  8398.35  8472.30
 U, KJ/KG         4470.17  4523.31  4576.47  4629.67  4682.89  4736.15  4789.44  4842.76
 G, KJ/KG        -68299.6 -68751.1 -69202.9 -69655.2 -70108.0 -70561.1 -71014.7 -71468.7
 S, KJ/(KG)(K)    90.2426  90.3296  90.4162  90.5023  90.5879  90.6731  90.7578  90.8420

 M, (1/n)           2.016    2.016    2.016    2.016    2.016    2.016    2.016    2.016
 (dLV/dLP)t      -0.99999 -0.99999 -0.99999 -0.99999 -0.99999 -0.99999 -0.99999 -0.99999
 (dLV/dLT)p        1.0000   1.0000   1.0000   1.0000   1.0000   1.0000   1.0000   1.0000
 Cp, KJ/(KG)(K)   14.7483  14.7543  14.7603  14.7664  14.7727  14.7790  14.7854  14.7919
 GAMMAs            1.3882   1.3880   1.3878   1.3876   1.3874   1.3871   1.3869   1.3867
 SON VEL,M/SEC     2199.6   2205.9   2212.2   2218.5   2224.8   2231.0   2237.2   2243.4

 TRANSPORT PROPERTIES (GASES ONLY)
   CONDUCTIVITY IN UNITS OF MILLIWATTS/(CM)(K)

 VISC,MILLIPOISE  0.18253  0.18329  0.18405  0.18481  0.18556  0.18632  0.18707  0.18782

  WITH EQUILIBRIUM REACTIONS

 Cp, KJ/(KG)(K)   14.7483  14.7543  14.7603  14.7664  14.7727  14.7790  14.7854  14.7919
 CONDUCTIVITY      3.8975   3.9150   3.9325   3.9500   3.9675   3.9850   4.0024   4.0199
 PRANDTL NUMBER    0.6907   0.6908   0.6908   0.6909   0.6909   0.6910   0.6911   0.6911

  WITH FROZEN REACTIONS

 Cp, KJ/(KG)(K)   14.7483  14.7543  14.7603  14.7664  14.7727  14.7790  14.7854  14.7919
 CONDUCTIVITY      3.8975   3.9150   3.9325   3.9500   3.9675   3.9850   4.0024   4.0199
 PRANDTL NUMBER    0.6907   0.6908   0.6908   0.6909   0.6909   0.6910   0.6911   0.6911

 MASS FRACTIONS

 *H2              1.00000  1.00000  1.00000  1.00000  1.00000  1.00000  1.00000  1.00000

  * THERMODYNAMIC PROPERTIES FITTED TO 20000.K

 NOTE. WEIGHT FRACTION OF FUEL IN TOTAL FUELS AND OF OXIDANT IN TOTAL OXIDANTS









               THERMODYNAMIC EQUILIBRIUM PROPERTIES AT ASSIGNED

                           TEMPERATURE AND PRESSURE

 CASE =                

             REACTANT                    WT FRACTION      ENERGY      TEMP
                                          (SEE NOTE)     KJ/KG-MOL      K  
 FUEL        H2                           1.0000000         0.000      0.000
 OXIDANT     H2                           1.0000000         0.000      0.000

 O/F=    1.00000  %FUEL= 50.000000  R,EQ.RATIO= 0.000000  PHI,EQ.RATIO=-1.000000

 THERMODYNAMIC PROPERTIES

 P, BAR           0.08250  0.08250  0.08250  0.09100  0.09100  0.09100  0.09100  0.09100
 T, K              885.00   890.00   895.00   825.00   830.00   835.00   840.00   845.00
 RHO, KG/CU M    2.2602-3 2.2475-3 2.2349-3 2.6743-3 2.6582-3 2.6423-3 2.6266-3 2.6111-3
 H, KJ/KG         8546.27  8620.28  8694.33  7660.63  7734.27  7807.93  7881.63  7955.36
 U, KJ/KG         4896.11  4949.50  5002.92  4257.93  4310.95  4363.99  4417.07  4470.17
 G, KJ/KG        -71923.1 -72377.9 -72833.2 -66164.7 -66612.3 -67060.4 -67508.9 -67957.9
 S, KJ/(KG)(K)    90.9259  91.0092  91.0922  89.4853  89.5742  89.6627  89.7507  89.8382

 M, (1/n)           2.016    2.016    2.016    2.016    2.016    2.016    2.016    2.016
 (dLV/dLP)t      -0.99999 -0.99999 -0.99999 -0.99999 -0.99999 -0.99999 -0.99999 -0.99999
 (dLV/dLT)p        1.0000   1.0000   1.0000   1.0000   1.0000   1.0000   1.0000   1.0000
 Cp, KJ/(KG)(K)   14.7985  14.8051  14.8119  14.7252  14.7308  14.7366  14.7424  14.7483
 GAMMAs            1.3864   1.3862   1.3859   1.3891   1.3889   1.3887   1.3885   1.3882
 SON VEL,M/SEC     2249.6   2255.7   2261.9   2174.1   2180.5   2186.9   2193.3   2199.6

 TRANSPORT PROPERTIES (GASES ONLY)
   CONDUCTIVITY IN UNITS OF MILLIWATTS/(CM)(K)

 VISC,MILLIPOISE  0.18857  0.18932  0.19007  0.17949  0.18025  0.18101  0.18177  0.18253

  WITH EQUILIBRIUM REACTIONS

 Cp, KJ/(KG)(K)   14.7985  14.8051  14.8119  14.7252  14.7308  14.7366  14.7424  14.7483
 CONDUCTIVITY      4.0374   4.0549   4.0724   3.8275   3.8450   3.8625   3.8800   3.8975
 PRANDTL NUMBER    0.6912   0.6913   0.6913   0.6905   0.6906   0.6906   0.6907   0.6907

  WITH FROZEN REACTIONS

 Cp, KJ/(KG)(K)   14.7985  14.8051  14.8119  14.7252  14.7308  14.7366  14.7424  14.7483
 CONDUCTIVITY      4.0374   4.0549   4.0724   3.8275   3.8450   3.8625   3.8800   3.8975
 PRANDTL NUMBER    0.6912   0.6913   0.6913   0.6905   0.6906   0.6906   0.6907   0.6907

 MASS FRACTIONS

 *H2              1.00000  1.00000  1.00000  1.00000  1.00000  1.00000  1.00000  1.00000

  * THERMODYNAMIC PROPERTIES FITTED TO 20000.K

 NOTE. WEIGHT FRACTION OF FUEL IN TOTAL FUELS AND OF OXIDANT IN TOTAL OXIDANTS









               THERMODYNAMIC EQUILIBRIUM PROPERTIES AT ASSIGNED

                           TEMPERATURE AND PRESSURE

 CASE =                

             REACTANT                    WT FRACTION      ENERGY      TEMP
                                          (SEE NOTE)     KJ/KG-MOL      K  
 FUEL        H2                           1.0000000         0.000      0.000
 OXIDANT     H2                           1.0000000         0.000      0.000

 O/F=    1.00000  %FUEL= 50.000000  R,EQ.RATIO= 0.000000  PHI,EQ.RATIO=-1.000000

 THERMODYNAMIC PROPERTIES

 P, BAR           0.09100  0.09100  0.09100  0.09100  0.09100  0.09100  0.09100  0.09100
 T, K              850.00   855.00   860.00   865.00   870.00   875.00   880.00   885.00
 RHO, KG/CU M    2.5957-3 2.5805-3 2.5655-3 2.5507-3 2.5360-3 2.5215-3 2.5072-3 2.4930-3
 H, KJ/KG         8029.11  8102.90  8176.72  8250.56  8324.44  8398.35  8472.30  8546.27
 U, KJ/KG         4523.31  4576.47  4629.67  4682.89  4736.15  4789.44  4842.76  4896.11
 G, KJ/KG        -68407.3 -68857.1 -69307.4 -69758.1 -70209.2 -70660.8 -71112.8 -71565.2
 S, KJ/(KG)(K)    89.9252  90.0117  90.0978  90.1834  90.2686  90.3533  90.4376  90.5214

 M, (1/n)           2.016    2.016    2.016    2.016    2.016    2.016    2.016    2.016
 (dLV/dLP)t      -0.99999 -0.99999 -0.99999 -0.99999 -0.99999 -0.99999 -0.99999 -0.99999
 (dLV/dLT)p        1.0000   1.0000   1.0000   1.0000   1.0000   1.0000   1.0000   1.0000
 Cp, KJ/(KG)(K)   14.7543  14.7603  14.7664  14.7727  14.7790  14.7854  14.7919  14.7985
 GAMMAs            1.3880   1.3878   1.3876   1.3874   1.3871   1.3869   1.3867   1.3864
 SON VEL,M/SEC     2205.9   2212.2   2218.5   2224.8   2231.0   2237.2   2243.4   2249.6

 TRANSPORT PROPERTIES (GASES ONLY)
   CONDUCTIVITY IN UNITS OF MILLIWATTS/(CM)(K)

 VISC,MILLIPOISE  0.18329  0.18405  0.18481  0.18556  0.18632  0.18707  0.18782  0.18857

  WITH EQUILIBRIUM REACTIONS

 Cp, KJ/(KG)(K)   14.7543  14.7603  14.7664  14.7727  14.7790  14.7854  14.7919  14.7985
 CONDUCTIVITY      3.9150   3.9325   3.9500   3.9675   3.9850   4.0024   4.0199   4.0374
 PRANDTL NUMBER    0.6908   0.6908   0.6909   0.6909   0.6910   0.6911   0.6911   0.6912

  WITH FROZEN REACTIONS

 Cp, KJ/(KG)(K)   14.7543  14.7603  14.7664  14.7727  14.7790  14.7854  14.7919  14.7985
 CONDUCTIVITY      3.9150   3.9325   3.9500   3.9675   3.9850   4.0024   4.0199   4.0374
 PRANDTL NUMBER    0.6908   0.6908   0.6909   0.6909   0.6910   0.6911   0.6911   0.6912

 MASS FRACTIONS

 *H2              1.00000  1.00000  1.00000  1.00000  1.00000  1.00000  1.00000  1.00000

  * THERMODYNAMIC PROPERTIES FITTED TO 20000.K

 NOTE. WEIGHT FRACTION OF FUEL IN TOTAL FUELS AND OF OXIDANT IN TOTAL OXIDANTS









               THERMODYNAMIC EQUILIBRIUM PROPERTIES AT ASSIGNED

                           TEMPERATURE AND PRESSURE

 CASE =                

             REACTANT                    WT FRACTION      ENERGY      TEMP
                                          (SEE NOTE)     KJ/KG-MOL      K  
 FUEL        H2                           1.0000000         0.000      0.000
 OXIDANT     H2                           1.0000000         0.000      0.000

 O/F=    1.00000  %FUEL= 50.000000  R,EQ.RATIO= 0.000000  PHI,EQ.RATIO=-1.000000

 THERMODYNAMIC PROPERTIES

 P, BAR           0.09100  0.09100  0.10000  0.10000  0.10000  0.10000  0.10000  0.10000
 T, K              890.00   895.00   825.00   830.00   835.00   840.00   845.00   850.00
 RHO, KG/CU M    2.4790-3 2.4652-3 2.9388-3 2.9211-3 2.9036-3 2.8864-3 2.8693-3 2.8524-3
 H, KJ/KG         8620.28  8694.33  7660.63  7734.27  7807.93  7881.63  7955.36  8029.11
 U, KJ/KG         4949.50  5002.92  4257.93  4310.95  4363.99  4417.07  4470.17  4523.31
 G, KJ/KG        -72018.0 -72471.2 -65843.8 -66289.5 -66735.6 -67182.2 -67629.2 -68076.7
 S, KJ/(KG)(K)    90.6048  90.6878  89.0963  89.1852  89.2737  89.3617  89.4492  89.5362

 M, (1/n)           2.016    2.016    2.016    2.016    2.016    2.016    2.016    2.016
 (dLV/dLP)t      -0.99999 -0.99999 -0.99999 -0.99999 -0.99999 -0.99999 -0.99999 -0.99999
 (dLV/dLT)p        1.0000   1.0000   1.0000   1.0000   1.0000   1.0000   1.0000   1.0000
 Cp, KJ/(KG)(K)   14.8051  14.8119  14.7252  14.7308  14.7366  14.7424  14.7483  14.7543
 GAMMAs            1.3862   1.3859   1.3891   1.3889   1.3887   1.3885   1.3882   1.3880
 SON VEL,M/SEC     2255.7   2261.9   2174.1   2180.5   2186.9   2193.3   2199.6   2205.9

 TRANSPORT PROPERTIES (GASES ONLY)
   CONDUCTIVITY IN UNITS OF MILLIWATTS/(CM)(K)

 VISC,MILLIPOISE  0.18932  0.19007  0.17949  0.18025  0.18101  0.18177  0.18253  0.18329

  WITH EQUILIBRIUM REACTIONS

 Cp, KJ/(KG)(K)   14.8051  14.8119  14.7252  14.7308  14.7366  14.7424  14.7483  14.7543
 CONDUCTIVITY      4.0549   4.0724   3.8275   3.8450   3.8625   3.8800   3.8975   3.9150
 PRANDTL NUMBER    0.6913   0.6913   0.6905   0.6906   0.6906   0.6907   0.6907   0.6908

  WITH FROZEN REACTIONS

 Cp, KJ/(KG)(K)   14.8051  14.8119  14.7252  14.7308  14.7366  14.7424  14.7483  14.7543
 CONDUCTIVITY      4.0549   4.0724   3.8275   3.8450   3.8625   3.8800   3.8975   3.9150
 PRANDTL NUMBER    0.6913   0.6913   0.6905   0.6906   0.6906   0.6907   0.6907   0.6908

 MASS FRACTIONS

 *H2              1.00000  1.00000  1.00000  1.00000  1.00000  1.00000  1.00000  1.00000

  * THERMODYNAMIC PROPERTIES FITTED TO 20000.K

 NOTE. WEIGHT FRACTION OF FUEL IN TOTAL FUELS AND OF OXIDANT IN TOTAL OXIDANTS









               THERMODYNAMIC EQUILIBRIUM PROPERTIES AT ASSIGNED

                           TEMPERATURE AND PRESSURE

 CASE =                

             REACTANT                    WT FRACTION      ENERGY      TEMP
                                          (SEE NOTE)     KJ/KG-MOL      K  
 FUEL        H2                           1.0000000         0.000      0.000
 OXIDANT     H2                           1.0000000         0.000      0.000

 O/F=    1.00000  %FUEL= 50.000000  R,EQ.RATIO= 0.000000  PHI,EQ.RATIO=-1.000000

 THERMODYNAMIC PROPERTIES

 P, BAR           0.10000  0.10000  0.10000  0.10000  0.10000  0.10000  0.10000  0.10000
 T, K              855.00   860.00   865.00   870.00   875.00   880.00   885.00   890.00
 RHO, KG/CU M    2.8357-3 2.8192-3 2.8029-3 2.7868-3 2.7709-3 2.7552-3 2.7396-3 2.7242-3
 H, KJ/KG         8102.90  8176.72  8250.56  8324.44  8398.35  8472.30  8546.27  8620.28
 U, KJ/KG         4576.47  4629.67  4682.89  4736.15  4789.44  4842.76  4896.11  4949.50
 G, KJ/KG        -68524.5 -68972.9 -69421.6 -69870.8 -70320.4 -70770.5 -71220.9 -71671.8
 S, KJ/(KG)(K)    89.6227  89.7088  89.7945  89.8796  89.9643  90.0486  90.1324  90.2158

 M, (1/n)           2.016    2.016    2.016    2.016    2.016    2.016    2.016    2.016
 (dLV/dLP)t      -0.99999 -0.99999 -0.99999 -0.99999 -0.99999 -0.99999 -0.99999 -0.99999
 (dLV/dLT)p        1.0000   1.0000   1.0000   1.0000   1.0000   1.0000   1.0000   1.0000
 Cp, KJ/(KG)(K)   14.7603  14.7664  14.7727  14.7790  14.7854  14.7919  14.7985  14.8051
 GAMMAs            1.3878   1.3876   1.3874   1.3871   1.3869   1.3867   1.3864   1.3862
 SON VEL,M/SEC     2212.2   2218.5   2224.8   2231.0   2237.2   2243.4   2249.6   2255.7

 TRANSPORT PROPERTIES (GASES ONLY)
   CONDUCTIVITY IN UNITS OF MILLIWATTS/(CM)(K)

 VISC,MILLIPOISE  0.18405  0.18481  0.18556  0.18632  0.18707  0.18782  0.18857  0.18932

  WITH EQUILIBRIUM REACTIONS

 Cp, KJ/(KG)(K)   14.7603  14.7664  14.7727  14.7790  14.7854  14.7919  14.7985  14.8051
 CONDUCTIVITY      3.9325   3.9500   3.9675   3.9850   4.0024   4.0199   4.0374   4.0549
 PRANDTL NUMBER    0.6908   0.6909   0.6909   0.6910   0.6911   0.6911   0.6912   0.6913

  WITH FROZEN REACTIONS

 Cp, KJ/(KG)(K)   14.7603  14.7664  14.7727  14.7790  14.7854  14.7919  14.7985  14.8051
 CONDUCTIVITY      3.9325   3.9500   3.9675   3.9850   4.0024   4.0199   4.0374   4.0549
 PRANDTL NUMBER    0.6908   0.6909   0.6909   0.6910   0.6911   0.6911   0.6912   0.6913

 MASS FRACTIONS

 *H2              1.00000  1.00000  1.00000  1.00000  1.00000  1.00000  1.00000  1.00000

  * THERMODYNAMIC PROPERTIES FITTED TO 20000.K

 NOTE. WEIGHT FRACTION OF FUEL IN TOTAL FUELS AND OF OXIDANT IN TOTAL OXIDANTS









               THERMODYNAMIC EQUILIBRIUM PROPERTIES AT ASSIGNED

                           TEMPERATURE AND PRESSURE

 CASE =                

             REACTANT                    WT FRACTION      ENERGY      TEMP
                                          (SEE NOTE)     KJ/KG-MOL      K  
 FUEL        H2                           1.0000000         0.000      0.000
 OXIDANT     H2                           1.0000000         0.000      0.000

 O/F=    1.00000  %FUEL= 50.000000  R,EQ.RATIO= 0.000000  PHI,EQ.RATIO=-1.000000

 THERMODYNAMIC PROPERTIES

 P, BAR           0.10000
 T, K              895.00
 RHO, KG/CU M    2.7090-3
 H, KJ/KG         8694.33
 U, KJ/KG         5002.92
 G, KJ/KG        -72123.1
 S, KJ/(KG)(K)    90.2988

 M, (1/n)           2.016
 (dLV/dLP)t      -0.99999
 (dLV/dLT)p        1.0000
 Cp, KJ/(KG)(K)   14.8119
 GAMMAs            1.3859
 SON VEL,M/SEC     2261.9

 TRANSPORT PROPERTIES (GASES ONLY)
   CONDUCTIVITY IN UNITS OF MILLIWATTS/(CM)(K)

 VISC,MILLIPOISE  0.19007

  WITH EQUILIBRIUM REACTIONS

 Cp, KJ/(KG)(K)   14.8119
 CONDUCTIVITY      4.0724
 PRANDTL NUMBER    0.6913

  WITH FROZEN REACTIONS

 Cp, KJ/(KG)(K)   14.8119
 CONDUCTIVITY      4.0724
 PRANDTL NUMBER    0.6913

 MASS FRACTIONS

 *H2              1.00000

  * THERMODYNAMIC PROPERTIES FITTED TO 20000.K

 NOTE. WEIGHT FRACTION OF FUEL IN TOTAL FUELS AND OF OXIDANT IN TOTAL OXIDANTS



  
