
 *******************************************************************************

         NASA-GLENN CHEMICAL EQUILIBRIUM PROGRAM CEA2, MAY 21, 2004
                   BY  BONNIE MCBRIDE AND SANFORD GORDON
      REFS: NASA RP-1311, PART I, 1994 AND NASA RP-1311, PART II, 1996

 *******************************************************************************



  prob tp ions
  p,bar= 0.0225,0.025,0.028,0.031,0.035,0.039,0.044,0.049,0.054,0.06,0.067,0.074,
 0.0825,0.091,0.1
  t,k= 1850,1860,1870,1880,1890,1900,1910,1920,1930,1940,1950,1960,1970,1980,1990
  
  
  reac
  fuel H2                wt%=100.0000
  oxid H2                wt%=100.0000
  
  output short
  
  output massf
  
  output siunits
  
  output transport
  
 end





               THERMODYNAMIC EQUILIBRIUM PROPERTIES AT ASSIGNED

                           TEMPERATURE AND PRESSURE

 CASE =                

             REACTANT                    WT FRACTION      ENERGY      TEMP
                                          (SEE NOTE)     KJ/KG-MOL      K  
 FUEL        H2                           1.0000000         0.000      0.000
 OXIDANT     H2                           1.0000000         0.000      0.000

 O/F=    1.00000  %FUEL= 50.000000  R,EQ.RATIO= 0.000000  PHI,EQ.RATIO=-1.000000

 THERMODYNAMIC PROPERTIES

 P, BAR           0.02250  0.02250  0.02250  0.02250  0.02250  0.02250  0.02250  0.02250
 T, K             1850.00  1860.00  1870.00  1880.00  1890.00  1900.00  1910.00  1920.00
 RHO, KG/CU M    2.9435-4 2.9272-4 2.9111-4 2.8951-4 2.8793-4 2.8636-4 2.8480-4 2.8325-4
 H, KJ/KG         24140.0  24340.7  24544.0  24750.0  24958.7  25170.5  25385.3  25603.5
 U, KJ/KG         16496.0  16654.2  16814.9  16978.2  17144.3  17313.2  17485.0  17660.1
 G, KJ/KG       -175724.4-176804.8-177886.8-178969.8-180054.0-181139.3-182225.7-183313.2
 S, KJ/(KG)(K)   108.0348 108.1428 108.2518 108.3616 108.4723 108.5841 108.6969 108.8108

 M, (1/n)           2.012    2.012    2.012    2.011    2.011    2.011    2.010    2.010
 (dLV/dLP)t      -1.00089 -1.00097 -1.00105 -1.00113 -1.00122 -1.00132 -1.00142 -1.00153
 (dLV/dLT)p        1.0264   1.0284   1.0306   1.0329   1.0353   1.0379   1.0406   1.0435
 Cp, KJ/(KG)(K)   19.9511  20.1986  20.4595  20.7343  21.0236  21.3281  21.6485  21.9853
 GAMMAs            1.2776   1.2746   1.2715   1.2683   1.2651   1.2619   1.2586   1.2553
 SON VEL,M/SEC     3125.1   3130.0   3134.9   3139.6   3144.3   3148.8   3153.3   3157.8

 TRANSPORT PROPERTIES (GASES ONLY)
   CONDUCTIVITY IN UNITS OF MILLIWATTS/(CM)(K)

 VISC,MILLIPOISE  0.31718  0.31847  0.31977  0.32106  0.32236  0.32367  0.32498  0.32629

  WITH EQUILIBRIUM REACTIONS

 Cp, KJ/(KG)(K)   19.9511  20.1986  20.4595  20.7343  21.0236  21.3281  21.6485  21.9853
 CONDUCTIVITY     10.2909  10.5372  10.7972  11.0712  11.3599  11.6640  11.9841  12.3211
 PRANDTL NUMBER    0.6149   0.6105   0.6059   0.6013   0.5966   0.5918   0.5870   0.5822

  WITH FROZEN REACTIONS

 Cp, KJ/(KG)(K)   16.7391  16.7583  16.7774  16.7966  16.8156  16.8346  16.8536  16.8725
 CONDUCTIVITY      7.5545   7.5935   7.6331   7.6729   7.7129   7.7531   7.7935   7.8342
 PRANDTL NUMBER    0.7028   0.7028   0.7028   0.7028   0.7028   0.7028   0.7028   0.7027

 MASS FRACTIONS

 *H               0.00180  0.00195  0.00211  0.00227  0.00246  0.00265  0.00286  0.00308
 *H2              0.99820  0.99805  0.99789  0.99773  0.99754  0.99735  0.99714  0.99692

  * THERMODYNAMIC PROPERTIES FITTED TO 20000.K

 NOTE. WEIGHT FRACTION OF FUEL IN TOTAL FUELS AND OF OXIDANT IN TOTAL OXIDANTS









               THERMODYNAMIC EQUILIBRIUM PROPERTIES AT ASSIGNED

                           TEMPERATURE AND PRESSURE

 CASE =                

             REACTANT                    WT FRACTION      ENERGY      TEMP
                                          (SEE NOTE)     KJ/KG-MOL      K  
 FUEL        H2                           1.0000000         0.000      0.000
 OXIDANT     H2                           1.0000000         0.000      0.000

 O/F=    1.00000  %FUEL= 50.000000  R,EQ.RATIO= 0.000000  PHI,EQ.RATIO=-1.000000

 THERMODYNAMIC PROPERTIES

 P, BAR           0.02250  0.02250  0.02250  0.02250  0.02250  0.02250  0.02250  0.02500
 T, K             1930.00  1940.00  1950.00  1960.00  1970.00  1980.00  1990.00  1850.00
 RHO, KG/CU M    2.8172-4 2.8020-4 2.7869-4 2.7719-4 2.7570-4 2.7422-4 2.7275-4 3.2708-4
 H, KJ/KG         25825.1  26050.3  26279.4  26512.4  26749.7  26991.4  27237.6  24119.3
 U, KJ/KG         17838.5  18020.3  18205.8  18395.2  18588.6  18786.2  18988.3  16475.9
 G, KJ/KG       -184401.9-185491.8-186582.8-187675.0-188768.4-189863.0-190958.8-174918.6
 S, KJ/(KG)(K)   108.9259 109.0423 109.1601 109.2793 109.4000 109.5224 109.6465 107.5880

 M, (1/n)           2.009    2.009    2.008    2.008    2.007    2.006    2.006    2.012
 (dLV/dLP)t      -1.00165 -1.00177 -1.00191 -1.00205 -1.00220 -1.00235 -1.00252 -1.00085
 (dLV/dLT)p        1.0466   1.0499   1.0533   1.0570   1.0608   1.0649   1.0692   1.0251
 Cp, KJ/(KG)(K)   22.3394  22.7113  23.1019  23.5119  23.9419  24.3929  24.8657  19.7859
 GAMMAs            1.2520   1.2486   1.2452   1.2418   1.2384   1.2350   1.2316   1.2797
 SON VEL,M/SEC     3162.1   3166.4   3170.7   3174.9   3179.1   3183.3   3187.5   3127.5

 TRANSPORT PROPERTIES (GASES ONLY)
   CONDUCTIVITY IN UNITS OF MILLIWATTS/(CM)(K)

 VISC,MILLIPOISE  0.32761  0.32893  0.33026  0.33160  0.33294  0.33429  0.33565  0.31715

  WITH EQUILIBRIUM REACTIONS

 Cp, KJ/(KG)(K)   22.3394  22.7113  23.1019  23.5119  23.9419  24.3929  24.8657  19.7859
 CONDUCTIVITY     12.6758  13.0488  13.4412  13.8537  14.2871  14.7424  15.2205  10.1491
 PRANDTL NUMBER    0.5774   0.5725   0.5676   0.5628   0.5579   0.5531   0.5483   0.6183

  WITH FROZEN REACTIONS

 Cp, KJ/(KG)(K)   16.8914  16.9102  16.9290  16.9478  16.9665  16.9853  17.0039  16.7387
 CONDUCTIVITY      7.8750   7.9162   7.9575   7.9992   8.0412   8.0834   8.1260   7.5528
 PRANDTL NUMBER    0.7027   0.7027   0.7026   0.7026   0.7025   0.7024   0.7024   0.7029

 MASS FRACTIONS

 *H               0.00331  0.00356  0.00383  0.00411  0.00441  0.00473  0.00507  0.00171
 *H2              0.99669  0.99644  0.99617  0.99589  0.99559  0.99527  0.99493  0.99829

  * THERMODYNAMIC PROPERTIES FITTED TO 20000.K

 NOTE. WEIGHT FRACTION OF FUEL IN TOTAL FUELS AND OF OXIDANT IN TOTAL OXIDANTS









               THERMODYNAMIC EQUILIBRIUM PROPERTIES AT ASSIGNED

                           TEMPERATURE AND PRESSURE

 CASE =                

             REACTANT                    WT FRACTION      ENERGY      TEMP
                                          (SEE NOTE)     KJ/KG-MOL      K  
 FUEL        H2                           1.0000000         0.000      0.000
 OXIDANT     H2                           1.0000000         0.000      0.000

 O/F=    1.00000  %FUEL= 50.000000  R,EQ.RATIO= 0.000000  PHI,EQ.RATIO=-1.000000

 THERMODYNAMIC PROPERTIES

 P, BAR           0.02500  0.02500  0.02500  0.02500  0.02500  0.02500  0.02500  0.02500
 T, K             1860.00  1870.00  1880.00  1890.00  1900.00  1910.00  1920.00  1930.00
 RHO, KG/CU M    3.2528-4 3.2349-4 3.2172-4 3.1996-4 3.1822-4 3.1649-4 3.1478-4 3.1308-4
 H, KJ/KG         24318.3  24519.7  24723.7  24930.4  25139.9  25352.4  25568.0  25786.9
 U, KJ/KG         16632.5  16791.5  16952.9  17116.9  17283.7  17453.3  17625.8  17801.6
 G, KJ/KG       -175995.0-177072.5-178151.1-179230.7-180311.5-181393.4-182476.4-183560.5
 S, KJ/(KG)(K)   107.6953 107.8033 107.9121 108.0218 108.1323 108.2439 108.3565 108.4702

 M, (1/n)           2.012    2.012    2.012    2.011    2.011    2.010    2.010    2.010
 (dLV/dLP)t      -1.00092 -1.00100 -1.00108 -1.00116 -1.00125 -1.00135 -1.00145 -1.00157
 (dLV/dLT)p        1.0270   1.0290   1.0312   1.0335   1.0359   1.0385   1.0413   1.0442
 Cp, KJ/(KG)(K)   20.0217  20.2701  20.5318  20.8072  21.0970  21.4019  21.7224  22.0592
 GAMMAs            1.2767   1.2737   1.2706   1.2675   1.2644   1.2612   1.2579   1.2546
 SON VEL,M/SEC     3132.5   3137.4   3142.3   3147.0   3151.7   3156.3   3160.8   3165.2

 TRANSPORT PROPERTIES (GASES ONLY)
   CONDUCTIVITY IN UNITS OF MILLIWATTS/(CM)(K)

 VISC,MILLIPOISE  0.31844  0.31973  0.32102  0.32232  0.32362  0.32493  0.32624  0.32755

  WITH EQUILIBRIUM REACTIONS

 Cp, KJ/(KG)(K)   20.0217  20.2701  20.5318  20.8072  21.0970  21.4019  21.7224  22.0592
 CONDUCTIVITY     10.3851  10.6337  10.8956  11.1715  11.4619  11.7676  12.0894  12.4278
 PRANDTL NUMBER    0.6139   0.6095   0.6049   0.6003   0.5957   0.5909   0.5862   0.5814

  WITH FROZEN REACTIONS

 Cp, KJ/(KG)(K)   16.7579  16.7770  16.7961  16.8151  16.8341  16.8530  16.8719  16.8908
 CONDUCTIVITY      7.5921   7.6316   7.6713   7.7112   7.7512   7.7915   7.8320   7.8727
 PRANDTL NUMBER    0.7029   0.7029   0.7029   0.7029   0.7028   0.7028   0.7028   0.7028

 MASS FRACTIONS

 *H               0.00185  0.00200  0.00216  0.00233  0.00251  0.00271  0.00292  0.00314
 *H2              0.99815  0.99800  0.99784  0.99767  0.99749  0.99729  0.99708  0.99686

  * THERMODYNAMIC PROPERTIES FITTED TO 20000.K

 NOTE. WEIGHT FRACTION OF FUEL IN TOTAL FUELS AND OF OXIDANT IN TOTAL OXIDANTS









               THERMODYNAMIC EQUILIBRIUM PROPERTIES AT ASSIGNED

                           TEMPERATURE AND PRESSURE

 CASE =                

             REACTANT                    WT FRACTION      ENERGY      TEMP
                                          (SEE NOTE)     KJ/KG-MOL      K  
 FUEL        H2                           1.0000000         0.000      0.000
 OXIDANT     H2                           1.0000000         0.000      0.000

 O/F=    1.00000  %FUEL= 50.000000  R,EQ.RATIO= 0.000000  PHI,EQ.RATIO=-1.000000

 THERMODYNAMIC PROPERTIES

 P, BAR           0.02500  0.02500  0.02500  0.02500  0.02500  0.02500  0.02800  0.02800
 T, K             1940.00  1950.00  1960.00  1970.00  1980.00  1990.00  1850.00  1860.00
 RHO, KG/CU M    3.1139-4 3.0971-4 3.0805-4 3.0640-4 3.0476-4 3.0313-4 3.6637-4 3.6435-4
 H, KJ/KG         26009.3  26235.2  26465.0  26698.8  26936.7  27179.1  24098.2  24295.4
 U, KJ/KG         17980.7  18163.2  18349.4  18539.5  18733.6  18931.8  16455.5  16610.5
 G, KJ/KG       -184645.8-185732.2-186819.8-187908.6-188998.6-190089.8-174052.4-175124.0
 S, KJ/(KG)(K)   108.5851 108.7013 108.8188 108.9378 109.0582 109.1803 107.1084 107.2148

 M, (1/n)           2.009    2.009    2.008    2.007    2.007    2.006    2.013    2.012
 (dLV/dLP)t      -1.00168 -1.00181 -1.00194 -1.00208 -1.00223 -1.00239 -1.00080 -1.00087
 (dLV/dLT)p        1.0473   1.0506   1.0540   1.0577   1.0616   1.0656   1.0237   1.0255
 Cp, KJ/(KG)(K)   22.4130  22.7844  23.1743  23.5832  24.0119  24.4613  19.6176  19.8415
 GAMMAs            1.2513   1.2480   1.2447   1.2413   1.2379   1.2346   1.2818   1.2790
 SON VEL,M/SEC     3169.6   3173.9   3178.2   3182.5   3186.7   3190.9   3130.0   3135.1

 TRANSPORT PROPERTIES (GASES ONLY)
   CONDUCTIVITY IN UNITS OF MILLIWATTS/(CM)(K)

 VISC,MILLIPOISE  0.32887  0.33019  0.33153  0.33286  0.33420  0.33555  0.31712  0.31841

  WITH EQUILIBRIUM REACTIONS

 Cp, KJ/(KG)(K)   22.4130  22.7844  23.1743  23.5832  24.0119  24.4613  19.6176  19.8415
 CONDUCTIVITY     12.7838  13.1581  13.5515  13.9648  14.3989  14.8546  10.0050  10.2301
 PRANDTL NUMBER    0.5766   0.5718   0.5669   0.5621   0.5573   0.5526   0.6218   0.6176

  WITH FROZEN REACTIONS

 Cp, KJ/(KG)(K)   16.9096  16.9283  16.9470  16.9657  16.9844  17.0030  16.7384  16.7575
 CONDUCTIVITY      7.9136   7.9548   7.9963   8.0380   8.0800   8.1223   7.5515   7.5907
 PRANDTL NUMBER    0.7027   0.7027   0.7026   0.7026   0.7025   0.7024   0.7029   0.7029

 MASS FRACTIONS

 *H               0.00338  0.00363  0.00390  0.00418  0.00449  0.00481  0.00161  0.00174
 *H2              0.99662  0.99637  0.99610  0.99582  0.99551  0.99519  0.99839  0.99826

  * THERMODYNAMIC PROPERTIES FITTED TO 20000.K

 NOTE. WEIGHT FRACTION OF FUEL IN TOTAL FUELS AND OF OXIDANT IN TOTAL OXIDANTS









               THERMODYNAMIC EQUILIBRIUM PROPERTIES AT ASSIGNED

                           TEMPERATURE AND PRESSURE

 CASE =                

             REACTANT                    WT FRACTION      ENERGY      TEMP
                                          (SEE NOTE)     KJ/KG-MOL      K  
 FUEL        H2                           1.0000000         0.000      0.000
 OXIDANT     H2                           1.0000000         0.000      0.000

 O/F=    1.00000  %FUEL= 50.000000  R,EQ.RATIO= 0.000000  PHI,EQ.RATIO=-1.000000

 THERMODYNAMIC PROPERTIES

 P, BAR           0.02800  0.02800  0.02800  0.02800  0.02800  0.02800  0.02800  0.02800
 T, K             1870.00  1880.00  1890.00  1900.00  1910.00  1920.00  1930.00  1940.00
 RHO, KG/CU M    3.6235-4 3.6037-4 3.5840-4 3.5645-4 3.5452-4 3.5261-4 3.5070-4 3.4882-4
 H, KJ/KG         24495.0  24697.0  24901.6  25108.8  25318.9  25531.9  25748.0  25967.4
 U, KJ/KG         16767.6  16927.1  17089.1  17253.6  17420.9  17591.0  17764.1  17940.3
 G, KJ/KG       -176196.7-177270.5-178345.3-179421.2-180498.2-181576.4-182655.6-183736.0
 S, KJ/(KG)(K)   107.3218 107.4295 107.5380 107.6474 107.7576 107.8689 107.9812 108.0945

 M, (1/n)           2.012    2.012    2.011    2.011    2.011    2.010    2.010    2.009
 (dLV/dLP)t      -1.00094 -1.00102 -1.00110 -1.00118 -1.00128 -1.00137 -1.00148 -1.00159
 (dLV/dLT)p        1.0274   1.0295   1.0317   1.0340   1.0364   1.0390   1.0418   1.0447
 Cp, KJ/(KG)(K)   20.0773  20.3255  20.5868  20.8617  21.1507  21.4546  21.7738  22.1091
 GAMMAs            1.2760   1.2730   1.2700   1.2669   1.2638   1.2606   1.2574   1.2542
 SON VEL,M/SEC     3140.1   3145.1   3149.9   3154.7   3159.3   3163.9   3168.5   3172.9

 TRANSPORT PROPERTIES (GASES ONLY)
   CONDUCTIVITY IN UNITS OF MILLIWATTS/(CM)(K)

 VISC,MILLIPOISE  0.31969  0.32098  0.32228  0.32357  0.32488  0.32618  0.32749  0.32881

  WITH EQUILIBRIUM REACTIONS

 Cp, KJ/(KG)(K)   20.0773  20.3255  20.5868  20.8617  21.1507  21.4546  21.7738  22.1091
 CONDUCTIVITY     10.4671  10.7167  10.9795  11.2561  11.5471  11.8532  12.1752  12.5138
 PRANDTL NUMBER    0.6132   0.6088   0.6043   0.5997   0.5951   0.5904   0.5857   0.5809

  WITH FROZEN REACTIONS

 Cp, KJ/(KG)(K)   16.7766  16.7957  16.8146  16.8336  16.8525  16.8713  16.8901  16.9089
 CONDUCTIVITY      7.6301   7.6697   7.7094   7.7493   7.7894   7.8298   7.8703   7.9110
 PRANDTL NUMBER    0.7029   0.7029   0.7029   0.7029   0.7029   0.7028   0.7028   0.7028

 MASS FRACTIONS

 *H               0.00189  0.00204  0.00220  0.00237  0.00256  0.00276  0.00297  0.00319
 *H2              0.99811  0.99796  0.99780  0.99763  0.99744  0.99724  0.99703  0.99681

  * THERMODYNAMIC PROPERTIES FITTED TO 20000.K

 NOTE. WEIGHT FRACTION OF FUEL IN TOTAL FUELS AND OF OXIDANT IN TOTAL OXIDANTS









               THERMODYNAMIC EQUILIBRIUM PROPERTIES AT ASSIGNED

                           TEMPERATURE AND PRESSURE

 CASE =                

             REACTANT                    WT FRACTION      ENERGY      TEMP
                                          (SEE NOTE)     KJ/KG-MOL      K  
 FUEL        H2                           1.0000000         0.000      0.000
 OXIDANT     H2                           1.0000000         0.000      0.000

 O/F=    1.00000  %FUEL= 50.000000  R,EQ.RATIO= 0.000000  PHI,EQ.RATIO=-1.000000

 THERMODYNAMIC PROPERTIES

 P, BAR           0.02800  0.02800  0.02800  0.02800  0.02800  0.03100  0.03100  0.03100
 T, K             1950.00  1960.00  1970.00  1980.00  1990.00  1850.00  1860.00  1870.00
 RHO, KG/CU M    3.4695-4 3.4509-4 3.4325-4 3.4142-4 3.3960-4 4.0565-4 4.0342-4 4.0121-4
 H, KJ/KG         26190.2  26416.7  26646.9  26881.1  27119.4  24080.2  24276.0  24474.0
 U, KJ/KG         18119.9  18302.9  18489.5  18679.9  18874.4  16438.2  16591.7  16747.3
 G, KJ/KG       -184817.5-185900.2-186984.0-188069.0-189155.2-173274.6-174341.9-175410.2
 S, KJ/(KG)(K)   108.2091 108.3249 108.4421 108.5607 108.6807 106.6783 106.7838 106.8900

 M, (1/n)           2.009    2.008    2.008    2.007    2.007    2.013    2.013    2.012
 (dLV/dLP)t      -1.00171 -1.00184 -1.00197 -1.00211 -1.00226 -1.00076 -1.00083 -1.00090
 (dLV/dLT)p        1.0478   1.0511   1.0545   1.0582   1.0620   1.0225   1.0242   1.0261
 Cp, KJ/(KG)(K)   22.4611  22.8304  23.2178  23.6239  24.0495  19.4745  19.6881  19.9131
 GAMMAs            1.2509   1.2476   1.2443   1.2410   1.2377   1.2837   1.2809   1.2781
 SON VEL,M/SEC     3177.3   3181.7   3186.0   3190.3   3194.5   3132.1   3137.3   3142.5

 TRANSPORT PROPERTIES (GASES ONLY)
   CONDUCTIVITY IN UNITS OF MILLIWATTS/(CM)(K)

 VISC,MILLIPOISE  0.33013  0.33145  0.33278  0.33412  0.33546  0.31710  0.31838  0.31966

  WITH EQUILIBRIUM REACTIONS

 Cp, KJ/(KG)(K)   22.4611  22.8304  23.2178  23.6239  24.0495  19.4745  19.6881  19.9131
 CONDUCTIVITY     12.8697  13.2436  13.6363  14.0488  14.4817   9.8824  10.0982  10.3254
 PRANDTL NUMBER    0.5762   0.5714   0.5666   0.5618   0.5571   0.6249   0.6207   0.6165

  WITH FROZEN REACTIONS

 Cp, KJ/(KG)(K)   16.9276  16.9462  16.9649  16.9835  17.0020  16.7380  16.7572  16.7762
 CONDUCTIVITY      7.9520   7.9933   8.0348   8.0765   8.1186   7.5505   7.5896   7.6289
 PRANDTL NUMBER    0.7027   0.7027   0.7026   0.7026   0.7025   0.7029   0.7030   0.7030

 MASS FRACTIONS

 *H               0.00343  0.00368  0.00395  0.00424  0.00454  0.00153  0.00166  0.00179
 *H2              0.99657  0.99632  0.99605  0.99576  0.99546  0.99847  0.99834  0.99821

  * THERMODYNAMIC PROPERTIES FITTED TO 20000.K

 NOTE. WEIGHT FRACTION OF FUEL IN TOTAL FUELS AND OF OXIDANT IN TOTAL OXIDANTS









               THERMODYNAMIC EQUILIBRIUM PROPERTIES AT ASSIGNED

                           TEMPERATURE AND PRESSURE

 CASE =                

             REACTANT                    WT FRACTION      ENERGY      TEMP
                                          (SEE NOTE)     KJ/KG-MOL      K  
 FUEL        H2                           1.0000000         0.000      0.000
 OXIDANT     H2                           1.0000000         0.000      0.000

 O/F=    1.00000  %FUEL= 50.000000  R,EQ.RATIO= 0.000000  PHI,EQ.RATIO=-1.000000

 THERMODYNAMIC PROPERTIES

 P, BAR           0.03100  0.03100  0.03100  0.03100  0.03100  0.03100  0.03100  0.03100
 T, K             1880.00  1890.00  1900.00  1910.00  1920.00  1930.00  1940.00  1950.00
 RHO, KG/CU M    3.9902-4 3.9684-4 3.9469-4 3.9256-4 3.9044-4 3.8834-4 3.8625-4 3.8419-4
 H, KJ/KG         24674.3  24877.0  25082.3  25290.3  25501.1  25714.9  25931.8  26151.9
 U, KJ/KG         16905.2  17065.4  17228.1  17393.3  17561.3  17732.1  17906.0  18082.9
 G, KJ/KG       -176479.7-177550.2-178621.7-179694.4-180768.2-181843.1-182919.0-183996.2
 S, KJ/(KG)(K)   106.9968 107.1043 107.2127 107.3218 107.4319 107.5430 107.6551 107.7683

 M, (1/n)           2.012    2.012    2.011    2.011    2.011    2.010    2.010    2.009
 (dLV/dLP)t      -1.00097 -1.00104 -1.00113 -1.00121 -1.00131 -1.00141 -1.00151 -1.00162
 (dLV/dLT)p        1.0280   1.0301   1.0323   1.0346   1.0371   1.0397   1.0425   1.0454
 Cp, KJ/(KG)(K)   20.1500  20.3992  20.6613  20.9370  21.2266  21.5309  21.8505  22.1859
 GAMMAs            1.2751   1.2722   1.2692   1.2661   1.2630   1.2599   1.2567   1.2535
 SON VEL,M/SEC     3147.5   3152.4   3157.3   3162.0   3166.7   3171.3   3175.8   3180.3

 TRANSPORT PROPERTIES (GASES ONLY)
   CONDUCTIVITY IN UNITS OF MILLIWATTS/(CM)(K)

 VISC,MILLIPOISE  0.32095  0.32224  0.32353  0.32483  0.32613  0.32744  0.32875  0.33007

  WITH EQUILIBRIUM REACTIONS

 Cp, KJ/(KG)(K)   20.1500  20.3992  20.6613  20.9370  21.2266  21.5309  21.8505  22.1859
 CONDUCTIVITY     10.5645  10.8161  11.0808  11.3593  11.6522  11.9602  12.2839  12.6241
 PRANDTL NUMBER    0.6122   0.6077   0.6033   0.5987   0.5941   0.5895   0.5848   0.5801

  WITH FROZEN REACTIONS

 Cp, KJ/(KG)(K)   16.7953  16.8142  16.8331  16.8520  16.8708  16.8896  16.9083  16.9269
 CONDUCTIVITY      7.6683   7.7079   7.7477   7.7877   7.8279   7.8682   7.9088   7.9497
 PRANDTL NUMBER    0.7029   0.7029   0.7029   0.7029   0.7029   0.7029   0.7028   0.7028

 MASS FRACTIONS

 *H               0.00194  0.00209  0.00226  0.00243  0.00262  0.00282  0.00303  0.00326
 *H2              0.99806  0.99791  0.99774  0.99757  0.99738  0.99718  0.99697  0.99674

  * THERMODYNAMIC PROPERTIES FITTED TO 20000.K

 NOTE. WEIGHT FRACTION OF FUEL IN TOTAL FUELS AND OF OXIDANT IN TOTAL OXIDANTS









               THERMODYNAMIC EQUILIBRIUM PROPERTIES AT ASSIGNED

                           TEMPERATURE AND PRESSURE

 CASE =                

             REACTANT                    WT FRACTION      ENERGY      TEMP
                                          (SEE NOTE)     KJ/KG-MOL      K  
 FUEL        H2                           1.0000000         0.000      0.000
 OXIDANT     H2                           1.0000000         0.000      0.000

 O/F=    1.00000  %FUEL= 50.000000  R,EQ.RATIO= 0.000000  PHI,EQ.RATIO=-1.000000

 THERMODYNAMIC PROPERTIES

 P, BAR           0.03100  0.03100  0.03100  0.03100  0.03500  0.03500  0.03500  0.03500
 T, K             1960.00  1970.00  1980.00  1990.00  1850.00  1860.00  1870.00  1880.00
 RHO, KG/CU M    3.8213-4 3.8010-4 3.7807-4 3.7607-4 4.5803-4 4.5552-4 4.5302-4 4.5055-4
 H, KJ/KG         26375.6  26602.8  26833.7  27068.7  24059.9  24254.1  24450.3  24648.7
 U, KJ/KG         18263.2  18446.9  18634.3  18825.5  16418.6  16570.5  16724.4  16880.4
 G, KJ/KG       -185074.4-186153.8-187234.4-188316.1-172347.2-173409.3-174472.6-175536.8
 S, KJ/(KG)(K)   107.8826 107.9983 108.1152 108.2336 106.1660 106.2706 106.3758 106.4817

 M, (1/n)           2.009    2.008    2.008    2.007    2.013    2.013    2.012    2.012
 (dLV/dLP)t      -1.00174 -1.00187 -1.00201 -1.00215 -1.00072 -1.00078 -1.00084 -1.00091
 (dLV/dLT)p        1.0486   1.0518   1.0553   1.0590   1.0212   1.0228   1.0245   1.0264
 Cp, KJ/(KG)(K)   22.5378  22.9068  23.2937  23.6990  19.3130  19.5152  19.7280  19.9520
 GAMMAs            1.2503   1.2470   1.2437   1.2405   1.2859   1.2831   1.2804   1.2776
 SON VEL,M/SEC     3184.7   3189.1   3193.4   3197.7   3134.6   3139.9   3145.2   3150.3

 TRANSPORT PROPERTIES (GASES ONLY)
   CONDUCTIVITY IN UNITS OF MILLIWATTS/(CM)(K)

 VISC,MILLIPOISE  0.33139  0.33271  0.33404  0.33538  0.31707  0.31834  0.31963  0.32091

  WITH EQUILIBRIUM REACTIONS

 Cp, KJ/(KG)(K)   22.5378  22.9068  23.2937  23.6990  19.3130  19.5152  19.7280  19.9520
 CONDUCTIVITY     12.9814  13.3567  13.7507  14.1642   9.7440   9.9494  10.1654  10.3927
 PRANDTL NUMBER    0.5753   0.5706   0.5659   0.5611   0.6284   0.6244   0.6203   0.6161

  WITH FROZEN REACTIONS

 Cp, KJ/(KG)(K)   16.9456  16.9642  16.9827  17.0012  16.7377  16.7568  16.7758  16.7948
 CONDUCTIVITY      7.9907   8.0320   8.0736   8.1154   7.5492   7.5882   7.6274   7.6667
 PRANDTL NUMBER    0.7028   0.7027   0.7027   0.7026   0.7030   0.7030   0.7030   0.7030

 MASS FRACTIONS

 *H               0.00350  0.00376  0.00403  0.00432  0.00144  0.00156  0.00169  0.00182
 *H2              0.99650  0.99624  0.99597  0.99568  0.99856  0.99844  0.99831  0.99818

  * THERMODYNAMIC PROPERTIES FITTED TO 20000.K

 NOTE. WEIGHT FRACTION OF FUEL IN TOTAL FUELS AND OF OXIDANT IN TOTAL OXIDANTS









               THERMODYNAMIC EQUILIBRIUM PROPERTIES AT ASSIGNED

                           TEMPERATURE AND PRESSURE

 CASE =                

             REACTANT                    WT FRACTION      ENERGY      TEMP
                                          (SEE NOTE)     KJ/KG-MOL      K  
 FUEL        H2                           1.0000000         0.000      0.000
 OXIDANT     H2                           1.0000000         0.000      0.000

 O/F=    1.00000  %FUEL= 50.000000  R,EQ.RATIO= 0.000000  PHI,EQ.RATIO=-1.000000

 THERMODYNAMIC PROPERTIES

 P, BAR           0.03500  0.03500  0.03500  0.03500  0.03500  0.03500  0.03500  0.03500
 T, K             1890.00  1900.00  1910.00  1920.00  1930.00  1940.00  1950.00  1960.00
 RHO, KG/CU M    4.4811-4 4.4568-4 4.4327-4 4.4088-4 4.3852-4 4.3617-4 4.3384-4 4.3153-4
 H, KJ/KG         24849.4  25052.5  25258.1  25466.4  25677.5  25891.6  26108.8  26329.2
 U, KJ/KG         17038.7  17199.2  17362.3  17527.8  17696.1  17867.2  18041.3  18218.5
 G, KJ/KG       -176602.2-177668.6-178736.1-179804.7-180874.3-181945.1-183017.0-184090.0
 S, KJ/(KG)(K)   106.5881 106.6953 106.8032 106.9120 107.0217 107.1323 107.2440 107.3567

 M, (1/n)           2.012    2.012    2.011    2.011    2.011    2.010    2.010    2.009
 (dLV/dLP)t      -1.00098 -1.00106 -1.00114 -1.00123 -1.00132 -1.00142 -1.00153 -1.00164
 (dLV/dLT)p        1.0283   1.0304   1.0326   1.0349   1.0374   1.0400   1.0428   1.0457
 Cp, KJ/(KG)(K)   20.1877  20.4355  20.6959  20.9696  21.2571  21.5589  21.8756  22.2078
 GAMMAs            1.2747   1.2717   1.2688   1.2658   1.2627   1.2596   1.2565   1.2533
 SON VEL,M/SEC     3155.3   3160.3   3165.1   3169.9   3174.6   3179.2   3183.8   3188.3

 TRANSPORT PROPERTIES (GASES ONLY)
   CONDUCTIVITY IN UNITS OF MILLIWATTS/(CM)(K)

 VISC,MILLIPOISE  0.32220  0.32349  0.32478  0.32608  0.32738  0.32869  0.33000  0.33131

  WITH EQUILIBRIUM REACTIONS

 Cp, KJ/(KG)(K)   20.1877  20.4355  20.6959  20.9696  21.2571  21.5589  21.8756  22.2078
 CONDUCTIVITY     10.6318  10.8832  11.1476  11.4255  11.7176  12.0246  12.3470  12.6857
 PRANDTL NUMBER    0.6118   0.6074   0.6030   0.5985   0.5939   0.5893   0.5847   0.5800

  WITH FROZEN REACTIONS

 Cp, KJ/(KG)(K)   16.8138  16.8326  16.8515  16.8702  16.8889  16.9076  16.9262  16.9448
 CONDUCTIVITY      7.7062   7.7459   7.7857   7.8257   7.8659   7.9063   7.9470   7.9878
 PRANDTL NUMBER    0.7030   0.7030   0.7030   0.7029   0.7029   0.7029   0.7029   0.7028

 MASS FRACTIONS

 *H               0.00197  0.00212  0.00229  0.00247  0.00265  0.00286  0.00307  0.00330
 *H2              0.99803  0.99788  0.99771  0.99753  0.99735  0.99714  0.99693  0.99670

  * THERMODYNAMIC PROPERTIES FITTED TO 20000.K

 NOTE. WEIGHT FRACTION OF FUEL IN TOTAL FUELS AND OF OXIDANT IN TOTAL OXIDANTS









               THERMODYNAMIC EQUILIBRIUM PROPERTIES AT ASSIGNED

                           TEMPERATURE AND PRESSURE

 CASE =                

             REACTANT                    WT FRACTION      ENERGY      TEMP
                                          (SEE NOTE)     KJ/KG-MOL      K  
 FUEL        H2                           1.0000000         0.000      0.000
 OXIDANT     H2                           1.0000000         0.000      0.000

 O/F=    1.00000  %FUEL= 50.000000  R,EQ.RATIO= 0.000000  PHI,EQ.RATIO=-1.000000

 THERMODYNAMIC PROPERTIES

 P, BAR           0.03500  0.03500  0.03500  0.03900  0.03900  0.03900  0.03900  0.03900
 T, K             1970.00  1980.00  1990.00  1850.00  1860.00  1870.00  1880.00  1890.00
 RHO, KG/CU M    4.2924-4 4.2696-4 4.2470-4 5.1042-4 5.0762-4 5.0484-4 5.0209-4 4.9937-4
 H, KJ/KG         26553.0  26780.4  27011.5  24042.9  24235.6  24430.3  24627.1  24826.0
 U, KJ/KG         18399.0  18582.9  18770.3  16402.1  16552.7  16705.1  16859.6  17016.2
 G, KJ/KG       -185164.1-186239.4-187315.9-171520.3-172577.9-173636.6-174696.3-175757.0
 S, KJ/(KG)(K)   107.4706 107.5857 107.7022 105.7098 105.8137 105.9181 106.0231 106.1286

 M, (1/n)           2.009    2.008    2.008    2.013    2.013    2.013    2.012    2.012
 (dLV/dLP)t      -1.00176 -1.00189 -1.00202 -1.00068 -1.00074 -1.00080 -1.00086 -1.00093
 (dLV/dLT)p        1.0488   1.0521   1.0555   1.0201   1.0216   1.0232   1.0250   1.0268
 Cp, KJ/(KG)(K)   22.5562  22.9213  23.3038  19.1771  19.3696  19.5722  19.7854  20.0096
 GAMMAs            1.2501   1.2469   1.2437   1.2877   1.2851   1.2824   1.2796   1.2768
 SON VEL,M/SEC     3192.7   3197.1   3201.5   3136.7   3142.1   3147.5   3152.7   3157.8

 TRANSPORT PROPERTIES (GASES ONLY)
   CONDUCTIVITY IN UNITS OF MILLIWATTS/(CM)(K)

 VISC,MILLIPOISE  0.33263  0.33396  0.33529  0.31704  0.31832  0.31960  0.32088  0.32216

  WITH EQUILIBRIUM REACTIONS

 Cp, KJ/(KG)(K)   22.5562  22.9213  23.3038  19.1771  19.3696  19.5722  19.7854  20.0096
 CONDUCTIVITY     13.0412  13.4144  13.8059   9.6276   9.8241  10.0307  10.2481  10.4765
 PRANDTL NUMBER    0.5753   0.5706   0.5660   0.6315   0.6276   0.6236   0.6195   0.6153

  WITH FROZEN REACTIONS

 Cp, KJ/(KG)(K)   16.9633  16.9818  17.0003  16.7374  16.7565  16.7755  16.7945  16.8134
 CONDUCTIVITY      8.0289   8.0702   8.1118   7.5482   7.5871   7.6262   7.6654   7.7048
 PRANDTL NUMBER    0.7028   0.7027   0.7027   0.7030   0.7030   0.7030   0.7030   0.7030

 MASS FRACTIONS

 *H               0.00354  0.00379  0.00406  0.00137  0.00148  0.00160  0.00173  0.00187
 *H2              0.99646  0.99621  0.99594  0.99863  0.99852  0.99840  0.99827  0.99813

  * THERMODYNAMIC PROPERTIES FITTED TO 20000.K

 NOTE. WEIGHT FRACTION OF FUEL IN TOTAL FUELS AND OF OXIDANT IN TOTAL OXIDANTS









               THERMODYNAMIC EQUILIBRIUM PROPERTIES AT ASSIGNED

                           TEMPERATURE AND PRESSURE

 CASE =                

             REACTANT                    WT FRACTION      ENERGY      TEMP
                                          (SEE NOTE)     KJ/KG-MOL      K  
 FUEL        H2                           1.0000000         0.000      0.000
 OXIDANT     H2                           1.0000000         0.000      0.000

 O/F=    1.00000  %FUEL= 50.000000  R,EQ.RATIO= 0.000000  PHI,EQ.RATIO=-1.000000

 THERMODYNAMIC PROPERTIES

 P, BAR           0.03900  0.03900  0.03900  0.03900  0.03900  0.03900  0.03900  0.03900
 T, K             1900.00  1910.00  1920.00  1930.00  1940.00  1950.00  1960.00  1970.00
 RHO, KG/CU M    4.9667-4 4.9399-4 4.9134-4 4.8870-4 4.8609-4 4.8350-4 4.8093-4 4.7838-4
 H, KJ/KG         25027.3  25231.0  25437.2  25646.1  25857.8  26072.4  26290.1  26511.1
 U, KJ/KG         17175.0  17336.1  17499.7  17665.8  17834.6  18006.2  18180.9  18358.6
 G, KJ/KG       -176818.8-177881.7-178945.7-180010.7-181076.8-182144.1-183212.4-184281.8
 S, KJ/(KG)(K)   106.2348 106.3417 106.4494 106.5579 106.6673 106.7777 106.8890 107.0015

 M, (1/n)           2.012    2.012    2.011    2.011    2.010    2.010    2.010    2.009
 (dLV/dLP)t      -1.00100 -1.00108 -1.00117 -1.00125 -1.00135 -1.00145 -1.00156 -1.00167
 (dLV/dLT)p        1.0288   1.0309   1.0331   1.0354   1.0379   1.0405   1.0433   1.0462
 Cp, KJ/(KG)(K)   20.2453  20.4930  20.7532  21.0265  21.3133  21.6143  21.9300  22.2609
 GAMMAs            1.2740   1.2711   1.2681   1.2651   1.2621   1.2591   1.2560   1.2528
 SON VEL,M/SEC     3162.9   3167.8   3172.7   3177.5   3182.2   3186.8   3191.4   3195.9

 TRANSPORT PROPERTIES (GASES ONLY)
   CONDUCTIVITY IN UNITS OF MILLIWATTS/(CM)(K)

 VISC,MILLIPOISE  0.32345  0.32474  0.32604  0.32733  0.32864  0.32994  0.33125  0.33257

  WITH EQUILIBRIUM REACTIONS

 Cp, KJ/(KG)(K)   20.2453  20.4930  20.7532  21.0265  21.3133  21.6143  21.9300  22.2609
 CONDUCTIVITY     10.7167  10.9692  11.2345  11.5133  11.8062  12.1137  12.4366  12.7755
 PRANDTL NUMBER    0.6110   0.6067   0.6023   0.5978   0.5933   0.5887   0.5841   0.5795

  WITH FROZEN REACTIONS

 Cp, KJ/(KG)(K)   16.8322  16.8510  16.8697  16.8884  16.9070  16.9256  16.9442  16.9627
 CONDUCTIVITY      7.7443   7.7840   7.8239   7.8640   7.9042   7.9447   7.9854   8.0263
 PRANDTL NUMBER    0.7030   0.7030   0.7030   0.7030   0.7029   0.7029   0.7029   0.7028

 MASS FRACTIONS

 *H               0.00201  0.00217  0.00234  0.00251  0.00270  0.00291  0.00312  0.00335
 *H2              0.99799  0.99783  0.99766  0.99749  0.99730  0.99709  0.99688  0.99665

  * THERMODYNAMIC PROPERTIES FITTED TO 20000.K

 NOTE. WEIGHT FRACTION OF FUEL IN TOTAL FUELS AND OF OXIDANT IN TOTAL OXIDANTS









               THERMODYNAMIC EQUILIBRIUM PROPERTIES AT ASSIGNED

                           TEMPERATURE AND PRESSURE

 CASE =                

             REACTANT                    WT FRACTION      ENERGY      TEMP
                                          (SEE NOTE)     KJ/KG-MOL      K  
 FUEL        H2                           1.0000000         0.000      0.000
 OXIDANT     H2                           1.0000000         0.000      0.000

 O/F=    1.00000  %FUEL= 50.000000  R,EQ.RATIO= 0.000000  PHI,EQ.RATIO=-1.000000

 THERMODYNAMIC PROPERTIES

 P, BAR           0.03900  0.03900  0.04400  0.04400  0.04400  0.04400  0.04400  0.04400
 T, K             1980.00  1990.00  1850.00  1860.00  1870.00  1880.00  1890.00  1900.00
 RHO, KG/CU M    4.7585-4 4.7334-4 5.7590-4 5.7275-4 5.6962-4 5.6652-4 5.6345-4 5.6041-4
 H, KJ/KG         26735.4  26963.3  24024.9  24216.2  24409.3  24604.4  24801.5  25000.8
 U, KJ/KG         18539.5  18723.9  16384.8  16533.9  16684.8  16837.7  16992.5  17149.4
 G, KJ/KG       -185352.4-186424.1-170598.7-171651.2-172704.7-173759.3-174815.0-175871.7
 S, KJ/(KG)(K)   107.1151 107.2299 105.2019 105.3050 105.4086 105.5126 105.6172 105.7224

 M, (1/n)           2.009    2.008    2.013    2.013    2.013    2.013    2.012    2.012
 (dLV/dLP)t      -1.00179 -1.00192 -1.00064 -1.00069 -1.00075 -1.00081 -1.00088 -1.00095
 (dLV/dLT)p        1.0493   1.0526   1.0189   1.0203   1.0219   1.0235   1.0253   1.0271
 Cp, KJ/(KG)(K)   22.6077  22.9710  19.0340  19.2163  19.4081  19.6099  19.8221  20.0451
 GAMMAs            1.2497   1.2465   1.2897   1.2871   1.2845   1.2819   1.2792   1.2764
 SON VEL,M/SEC     3200.4   3204.8   3139.0   3144.5   3150.0   3155.3   3160.5   3165.7

 TRANSPORT PROPERTIES (GASES ONLY)
   CONDUCTIVITY IN UNITS OF MILLIWATTS/(CM)(K)

 VISC,MILLIPOISE  0.33389  0.33522  0.31701  0.31829  0.31957  0.32084  0.32213  0.32341

  WITH EQUILIBRIUM REACTIONS

 Cp, KJ/(KG)(K)   22.6077  22.9710  19.0340  19.2163  19.4081  19.6099  19.8221  20.0451
 CONDUCTIVITY     13.1311  13.5042   9.5049   9.6922   9.8889  10.0958  10.3131  10.5415
 PRANDTL NUMBER    0.5749   0.5702   0.6348   0.6311   0.6272   0.6232   0.6191   0.6150

  WITH FROZEN REACTIONS

 Cp, KJ/(KG)(K)   16.9811  16.9995  16.7371  16.7561  16.7751  16.7941  16.8129  16.8318
 CONDUCTIVITY      8.0674   8.1088   7.5471   7.5860   7.6249   7.6640   7.7033   7.7427
 PRANDTL NUMBER    0.7028   0.7028   0.7030   0.7030   0.7031   0.7031   0.7031   0.7031

 MASS FRACTIONS

 *H               0.00359  0.00385  0.00129  0.00139  0.00151  0.00163  0.00176  0.00189
 *H2              0.99641  0.99615  0.99871  0.99861  0.99849  0.99837  0.99824  0.99811

  * THERMODYNAMIC PROPERTIES FITTED TO 20000.K

 NOTE. WEIGHT FRACTION OF FUEL IN TOTAL FUELS AND OF OXIDANT IN TOTAL OXIDANTS









               THERMODYNAMIC EQUILIBRIUM PROPERTIES AT ASSIGNED

                           TEMPERATURE AND PRESSURE

 CASE =                

             REACTANT                    WT FRACTION      ENERGY      TEMP
                                          (SEE NOTE)     KJ/KG-MOL      K  
 FUEL        H2                           1.0000000         0.000      0.000
 OXIDANT     H2                           1.0000000         0.000      0.000

 O/F=    1.00000  %FUEL= 50.000000  R,EQ.RATIO= 0.000000  PHI,EQ.RATIO=-1.000000

 THERMODYNAMIC PROPERTIES

 P, BAR           0.04400  0.04400  0.04400  0.04400  0.04400  0.04400  0.04400  0.04400
 T, K             1910.00  1920.00  1930.00  1940.00  1950.00  1960.00  1970.00  1980.00
 RHO, KG/CU M    5.5739-4 5.5440-4 5.5144-4 5.4850-4 5.4558-4 5.4269-4 5.3982-4 5.3697-4
 H, KJ/KG         25202.5  25406.5  25613.0  25822.2  26034.1  26249.0  26466.9  26688.1
 U, KJ/KG         17308.6  17470.0  17633.9  17800.3  17969.3  18141.2  18316.0  18493.9
 G, KJ/KG       -176929.4-177988.2-179048.1-180109.1-181171.1-182234.3-183298.5-184363.9
 S, KJ/(KG)(K)   105.8282 105.9347 106.0420 106.1501 106.2591 106.3690 106.4799 106.5919

 M, (1/n)           2.012    2.011    2.011    2.011    2.010    2.010    2.010    2.009
 (dLV/dLP)t      -1.00102 -1.00110 -1.00118 -1.00127 -1.00136 -1.00147 -1.00157 -1.00169
 (dLV/dLT)p        1.0291   1.0312   1.0334   1.0357   1.0382   1.0408   1.0435   1.0465
 Cp, KJ/(KG)(K)   20.2793  20.5254  20.7837  21.0548  21.3392  21.6375  21.9501  22.2776
 GAMMAs            1.2736   1.2707   1.2678   1.2649   1.2619   1.2588   1.2558   1.2527
 SON VEL,M/SEC     3170.7   3175.7   3180.6   3185.4   3190.1   3194.8   3199.4   3203.9

 TRANSPORT PROPERTIES (GASES ONLY)
   CONDUCTIVITY IN UNITS OF MILLIWATTS/(CM)(K)

 VISC,MILLIPOISE  0.32470  0.32599  0.32728  0.32858  0.32988  0.33119  0.33250  0.33382

  WITH EQUILIBRIUM REACTIONS

 Cp, KJ/(KG)(K)   20.2793  20.5254  20.7837  21.0548  21.3392  21.6375  21.9501  22.2776
 CONDUCTIVITY     10.7814  11.0335  11.2982  11.5761  11.8680  12.1743  12.4956  12.8328
 PRANDTL NUMBER    0.6107   0.6064   0.6021   0.5976   0.5931   0.5886   0.5841   0.5795

  WITH FROZEN REACTIONS

 Cp, KJ/(KG)(K)   16.8505  16.8692  16.8879  16.9065  16.9250  16.9435  16.9619  16.9803
 CONDUCTIVITY      7.7823   7.8220   7.8619   7.9020   7.9423   7.9828   8.0235   8.0645
 PRANDTL NUMBER    0.7031   0.7030   0.7030   0.7030   0.7030   0.7029   0.7029   0.7029

 MASS FRACTIONS

 *H               0.00204  0.00220  0.00237  0.00255  0.00274  0.00294  0.00315  0.00338
 *H2              0.99796  0.99780  0.99763  0.99745  0.99726  0.99706  0.99685  0.99662

  * THERMODYNAMIC PROPERTIES FITTED TO 20000.K

 NOTE. WEIGHT FRACTION OF FUEL IN TOTAL FUELS AND OF OXIDANT IN TOTAL OXIDANTS









               THERMODYNAMIC EQUILIBRIUM PROPERTIES AT ASSIGNED

                           TEMPERATURE AND PRESSURE

 CASE =                

             REACTANT                    WT FRACTION      ENERGY      TEMP
                                          (SEE NOTE)     KJ/KG-MOL      K  
 FUEL        H2                           1.0000000         0.000      0.000
 OXIDANT     H2                           1.0000000         0.000      0.000

 O/F=    1.00000  %FUEL= 50.000000  R,EQ.RATIO= 0.000000  PHI,EQ.RATIO=-1.000000

 THERMODYNAMIC PROPERTIES

 P, BAR           0.04400  0.04900  0.04900  0.04900  0.04900  0.04900  0.04900  0.04900
 T, K             1990.00  1850.00  1860.00  1870.00  1880.00  1890.00  1900.00  1910.00
 RHO, KG/CU M    5.3414-4 6.4139-4 6.3788-4 6.3440-4 6.3095-4 6.2754-4 6.2415-4 6.2080-4
 H, KJ/KG         26912.5  24009.8  24199.8  24391.6  24585.2  24780.8  24978.5  25178.4
 U, KJ/KG         18675.0  16370.2  16518.1  16667.7  16819.2  16972.6  17127.9  17285.4
 G, KJ/KG       -185430.4-169776.4-170824.4-171873.4-172923.4-173974.5-175026.7-176079.9
 S, KJ/(KG)(K)   106.7050 104.7493 104.8517 104.9545 105.0578 105.1616 105.2659 105.3708

 M, (1/n)           2.009    2.013    2.013    2.013    2.013    2.013    2.012    2.012
 (dLV/dLP)t      -1.00181 -1.00061 -1.00066 -1.00071 -1.00077 -1.00083 -1.00090 -1.00097
 (dLV/dLT)p        1.0495   1.0179   1.0193   1.0207   1.0223   1.0239   1.0257   1.0276
 Cp, KJ/(KG)(K)   22.6207  18.9133  19.0871  19.2699  19.4621  19.6641  19.8763  20.0993
 GAMMAs            1.2496   1.2914   1.2889   1.2864   1.2838   1.2811   1.2785   1.2757
 SON VEL,M/SEC     3208.4   3140.9   3146.6   3152.1   3157.5   3162.8   3168.1   3173.2

 TRANSPORT PROPERTIES (GASES ONLY)
   CONDUCTIVITY IN UNITS OF MILLIWATTS/(CM)(K)

 VISC,MILLIPOISE  0.33514  0.31699  0.31826  0.31954  0.32082  0.32209  0.32338  0.32466

  WITH EQUILIBRIUM REACTIONS

 Cp, KJ/(KG)(K)   22.6207  18.9133  19.0871  19.2699  19.4621  19.6641  19.8763  20.0993
 CONDUCTIVITY     13.1863   9.4016   9.5810   9.7694   9.9674  10.1753  10.3937  10.6231
 PRANDTL NUMBER    0.5749   0.6377   0.6340   0.6303   0.6264   0.6225   0.6184   0.6143

  WITH FROZEN REACTIONS

 Cp, KJ/(KG)(K)   16.9987  16.7368  16.7559  16.7748  16.7937  16.8126  16.8314  16.8501
 CONDUCTIVITY      8.1056   7.5462   7.5850   7.6238   7.6629   7.7020   7.7413   7.7808
 PRANDTL NUMBER    0.7028   0.7031   0.7031   0.7031   0.7031   0.7031   0.7031   0.7031

 MASS FRACTIONS

 *H               0.00363  0.00122  0.00132  0.00143  0.00154  0.00166  0.00180  0.00194
 *H2              0.99637  0.99878  0.99868  0.99857  0.99846  0.99834  0.99820  0.99806

  * THERMODYNAMIC PROPERTIES FITTED TO 20000.K

 NOTE. WEIGHT FRACTION OF FUEL IN TOTAL FUELS AND OF OXIDANT IN TOTAL OXIDANTS









               THERMODYNAMIC EQUILIBRIUM PROPERTIES AT ASSIGNED

                           TEMPERATURE AND PRESSURE

 CASE =                

             REACTANT                    WT FRACTION      ENERGY      TEMP
                                          (SEE NOTE)     KJ/KG-MOL      K  
 FUEL        H2                           1.0000000         0.000      0.000
 OXIDANT     H2                           1.0000000         0.000      0.000

 O/F=    1.00000  %FUEL= 50.000000  R,EQ.RATIO= 0.000000  PHI,EQ.RATIO=-1.000000

 THERMODYNAMIC PROPERTIES

 P, BAR           0.04900  0.04900  0.04900  0.04900  0.04900  0.04900  0.04900  0.04900
 T, K             1920.00  1930.00  1940.00  1950.00  1960.00  1970.00  1980.00  1990.00
 RHO, KG/CU M    6.1747-4 6.1418-4 6.1091-4 6.0767-4 6.0445-4 6.0126-4 5.9809-4 5.9495-4
 H, KJ/KG         25380.6  25585.1  25792.2  26001.9  26214.4  26429.8  26648.2  26869.8
 U, KJ/KG         17445.0  17607.0  17771.3  17938.2  18107.8  18280.2  18455.5  18633.8
 G, KJ/KG       -177134.1-178189.4-179245.7-180303.2-181361.7-182421.3-183482.0-184543.8
 S, KJ/(KG)(K)   105.4764 105.5826 105.6897 105.7975 105.9062 106.0158 106.1264 106.2380

 M, (1/n)           2.012    2.011    2.011    2.011    2.010    2.010    2.009    2.009
 (dLV/dLP)t      -1.00104 -1.00112 -1.00120 -1.00129 -1.00139 -1.00149 -1.00160 -1.00171
 (dLV/dLT)p        1.0295   1.0316   1.0338   1.0362   1.0386   1.0413   1.0440   1.0469
 Cp, KJ/(KG)(K)   20.3334  20.5792  20.8370  21.1074  21.3910  21.6881  21.9995  22.3254
 GAMMAs            1.2729   1.2701   1.2672   1.2643   1.2613   1.2584   1.2554   1.2523
 SON VEL,M/SEC     3178.3   3183.2   3188.1   3192.9   3197.7   3202.4   3207.0   3211.5

 TRANSPORT PROPERTIES (GASES ONLY)
   CONDUCTIVITY IN UNITS OF MILLIWATTS/(CM)(K)

 VISC,MILLIPOISE  0.32595  0.32724  0.32854  0.32983  0.33114  0.33244  0.33375  0.33507

  WITH EQUILIBRIUM REACTIONS

 Cp, KJ/(KG)(K)   20.3334  20.5792  20.8370  21.1074  21.3910  21.6881  21.9995  22.3254
 CONDUCTIVITY     10.8639  11.1168  11.3822  11.6608  11.9531  12.2597  12.5812  12.9184
 PRANDTL NUMBER    0.6101   0.6058   0.6014   0.5970   0.5926   0.5881   0.5836   0.5791

  WITH FROZEN REACTIONS

 Cp, KJ/(KG)(K)   16.8688  16.8874  16.9060  16.9245  16.9429  16.9613  16.9797  16.9980
 CONDUCTIVITY      7.8204   7.8602   7.9002   7.9403   7.9806   8.0212   8.0620   8.1029
 PRANDTL NUMBER    0.7031   0.7031   0.7030   0.7030   0.7030   0.7030   0.7029   0.7029

 MASS FRACTIONS

 *H               0.00208  0.00224  0.00241  0.00259  0.00279  0.00299  0.00321  0.00344
 *H2              0.99792  0.99776  0.99759  0.99741  0.99721  0.99701  0.99679  0.99656

  * THERMODYNAMIC PROPERTIES FITTED TO 20000.K

 NOTE. WEIGHT FRACTION OF FUEL IN TOTAL FUELS AND OF OXIDANT IN TOTAL OXIDANTS









               THERMODYNAMIC EQUILIBRIUM PROPERTIES AT ASSIGNED

                           TEMPERATURE AND PRESSURE

 CASE =                

             REACTANT                    WT FRACTION      ENERGY      TEMP
                                          (SEE NOTE)     KJ/KG-MOL      K  
 FUEL        H2                           1.0000000         0.000      0.000
 OXIDANT     H2                           1.0000000         0.000      0.000

 O/F=    1.00000  %FUEL= 50.000000  R,EQ.RATIO= 0.000000  PHI,EQ.RATIO=-1.000000

 THERMODYNAMIC PROPERTIES

 P, BAR           0.05400  0.05400  0.05400  0.05400  0.05400  0.05400  0.05400  0.05400
 T, K             1850.00  1860.00  1870.00  1880.00  1890.00  1900.00  1910.00  1920.00
 RHO, KG/CU M    7.0688-4 7.0301-4 6.9918-4 6.9539-4 6.9163-4 6.8790-4 6.8421-4 6.8055-4
 H, KJ/KG         23996.8  24185.7  24376.4  24568.8  24763.1  24959.4  25157.8  25358.3
 U, KJ/KG         16357.6  16504.5  16653.1  16803.3  16955.4  17109.4  17265.4  17423.6
 G, KJ/KG       -169034.1-170078.0-171122.9-172168.9-173215.9-174263.9-175313.0-176363.1
 S, KJ/(KG)(K)   104.3410 104.4429 104.5451 104.6477 104.7508 104.8544 104.9585 105.0632

 M, (1/n)           2.014    2.013    2.013    2.013    2.013    2.012    2.012    2.012
 (dLV/dLP)t      -1.00058 -1.00063 -1.00068 -1.00073 -1.00079 -1.00085 -1.00092 -1.00099
 (dLV/dLT)p        1.0171   1.0184   1.0198   1.0212   1.0228   1.0245   1.0263   1.0281
 Cp, KJ/(KG)(K)   18.8099  18.9763  19.1513  19.3353  19.5286  19.7316  19.9449  20.1687
 GAMMAs            1.2928   1.2904   1.2880   1.2855   1.2829   1.2803   1.2776   1.2749
 SON VEL,M/SEC     3142.6   3148.3   3153.9   3159.5   3164.9   3170.2   3175.4   3180.5

 TRANSPORT PROPERTIES (GASES ONLY)
   CONDUCTIVITY IN UNITS OF MILLIWATTS/(CM)(K)

 VISC,MILLIPOISE  0.31697  0.31824  0.31952  0.32079  0.32207  0.32335  0.32463  0.32592

  WITH EQUILIBRIUM REACTIONS

 Cp, KJ/(KG)(K)   18.8099  18.9763  19.1513  19.3353  19.5286  19.7316  19.9449  20.1687
 CONDUCTIVITY      9.3129   9.4856   9.6669   9.8573  10.0571  10.2670  10.4873  10.7185
 PRANDTL NUMBER    0.6402   0.6367   0.6330   0.6292   0.6254   0.6214   0.6174   0.6133

  WITH FROZEN REACTIONS

 Cp, KJ/(KG)(K)   16.7366  16.7556  16.7746  16.7935  16.8123  16.8311  16.8498  16.8684
 CONDUCTIVITY      7.5454   7.5841   7.6229   7.6619   7.7009   7.7402   7.7795   7.8190
 PRANDTL NUMBER    0.7031   0.7031   0.7031   0.7031   0.7031   0.7031   0.7031   0.7031

 MASS FRACTIONS

 *H               0.00116  0.00126  0.00136  0.00147  0.00159  0.00171  0.00184  0.00199
 *H2              0.99884  0.99874  0.99864  0.99853  0.99841  0.99829  0.99816  0.99801

  * THERMODYNAMIC PROPERTIES FITTED TO 20000.K

 NOTE. WEIGHT FRACTION OF FUEL IN TOTAL FUELS AND OF OXIDANT IN TOTAL OXIDANTS









               THERMODYNAMIC EQUILIBRIUM PROPERTIES AT ASSIGNED

                           TEMPERATURE AND PRESSURE

 CASE =                

             REACTANT                    WT FRACTION      ENERGY      TEMP
                                          (SEE NOTE)     KJ/KG-MOL      K  
 FUEL        H2                           1.0000000         0.000      0.000
 OXIDANT     H2                           1.0000000         0.000      0.000

 O/F=    1.00000  %FUEL= 50.000000  R,EQ.RATIO= 0.000000  PHI,EQ.RATIO=-1.000000

 THERMODYNAMIC PROPERTIES

 P, BAR           0.05400  0.05400  0.05400  0.05400  0.05400  0.05400  0.05400  0.06000
 T, K             1930.00  1940.00  1950.00  1960.00  1970.00  1980.00  1990.00  1850.00
 RHO, KG/CU M    6.7692-4 6.7332-4 6.6975-4 6.6622-4 6.6271-4 6.5922-4 6.5577-4 7.8547-4
 H, KJ/KG         25561.2  25766.4  25974.2  26184.7  26397.9  26614.0  26833.1  23983.4
 U, KJ/KG         17583.9  17746.5  17911.6  18079.2  18249.5  18422.5  18598.5  16344.7
 G, KJ/KG       -177414.2-178466.5-179519.7-180574.1-181629.5-182686.0-183743.7-168229.3
 S, KJ/(KG)(K)   105.1686 105.2747 105.3815 105.4892 105.5977 105.7071 105.8175 103.8988

 M, (1/n)           2.012    2.011    2.011    2.011    2.010    2.010    2.009    2.014
 (dLV/dLP)t      -1.00107 -1.00115 -1.00123 -1.00132 -1.00142 -1.00152 -1.00163 -1.00055
 (dLV/dLT)p        1.0301   1.0322   1.0345   1.0368   1.0393   1.0419   1.0447   1.0162
 Cp, KJ/(KG)(K)   20.4037  20.6502  20.9086  21.1796  21.4635  21.7609  22.0722  18.7033
 GAMMAs            1.2721   1.2693   1.2664   1.2635   1.2606   1.2577   1.2547   1.2944
 SON VEL,M/SEC     3185.6   3190.5   3195.4   3200.3   3205.0   3209.7   3214.3   3144.4

 TRANSPORT PROPERTIES (GASES ONLY)
   CONDUCTIVITY IN UNITS OF MILLIWATTS/(CM)(K)

 VISC,MILLIPOISE  0.32720  0.32850  0.32979  0.33109  0.33239  0.33370  0.33501  0.31695

  WITH EQUILIBRIUM REACTIONS

 Cp, KJ/(KG)(K)   20.4037  20.6502  20.9086  21.1796  21.4635  21.7609  22.0722  18.7033
 CONDUCTIVITY     10.9612  11.2159  11.4831  11.7634  12.0573  12.3654  12.6884   9.2215
 PRANDTL NUMBER    0.6091   0.6048   0.6005   0.5961   0.5917   0.5872   0.5828   0.6428

  WITH FROZEN REACTIONS

 Cp, KJ/(KG)(K)   16.8870  16.9055  16.9240  16.9424  16.9608  16.9791  16.9974  16.7364
 CONDUCTIVITY      7.8587   7.8986   7.9386   7.9788   8.0192   8.0598   8.1006   7.5446
 PRANDTL NUMBER    0.7031   0.7031   0.7031   0.7030   0.7030   0.7030   0.7030   0.7031

 MASS FRACTIONS

 *H               0.00214  0.00230  0.00247  0.00265  0.00285  0.00305  0.00327  0.00110
 *H2              0.99786  0.99770  0.99753  0.99735  0.99715  0.99695  0.99673  0.99890

  * THERMODYNAMIC PROPERTIES FITTED TO 20000.K

 NOTE. WEIGHT FRACTION OF FUEL IN TOTAL FUELS AND OF OXIDANT IN TOTAL OXIDANTS









               THERMODYNAMIC EQUILIBRIUM PROPERTIES AT ASSIGNED

                           TEMPERATURE AND PRESSURE

 CASE =                

             REACTANT                    WT FRACTION      ENERGY      TEMP
                                          (SEE NOTE)     KJ/KG-MOL      K  
 FUEL        H2                           1.0000000         0.000      0.000
 OXIDANT     H2                           1.0000000         0.000      0.000

 O/F=    1.00000  %FUEL= 50.000000  R,EQ.RATIO= 0.000000  PHI,EQ.RATIO=-1.000000

 THERMODYNAMIC PROPERTIES

 P, BAR           0.06000  0.06000  0.06000  0.06000  0.06000  0.06000  0.06000  0.06000
 T, K             1860.00  1870.00  1880.00  1890.00  1900.00  1910.00  1920.00  1930.00
 RHO, KG/CU M    7.8118-4 7.7692-4 7.7271-4 7.6854-4 7.6440-4 7.6030-4 7.5624-4 7.5222-4
 H, KJ/KG         24171.3  24360.7  24551.9  24744.8  24939.7  25136.5  25335.4  25536.5
 U, KJ/KG         16490.5  16637.9  16787.0  16937.8  17090.4  17244.9  17401.5  17560.1
 G, KJ/KG       -169268.7-170309.2-171350.7-172393.3-173436.9-174481.5-175527.1-176573.8
 S, KJ/(KG)(K)   104.0000 104.1016 104.2035 104.3059 104.4087 104.5120 104.6159 104.7204

 M, (1/n)           2.013    2.013    2.013    2.013    2.013    2.012    2.012    2.012
 (dLV/dLP)t      -1.00060 -1.00064 -1.00070 -1.00075 -1.00081 -1.00087 -1.00094 -1.00101
 (dLV/dLT)p        1.0174   1.0187   1.0202   1.0216   1.0232   1.0249   1.0267   1.0286
 Cp, KJ/(KG)(K)   18.8621  19.0291  19.2045  19.3889  19.5824  19.7857  19.9990  20.2228
 GAMMAs            1.2920   1.2897   1.2872   1.2847   1.2822   1.2796   1.2769   1.2742
 SON VEL,M/SEC     3150.2   3155.9   3161.5   3167.0   3172.4   3177.7   3182.9   3188.1

 TRANSPORT PROPERTIES (GASES ONLY)
   CONDUCTIVITY IN UNITS OF MILLIWATTS/(CM)(K)

 VISC,MILLIPOISE  0.31822  0.31949  0.32077  0.32204  0.32332  0.32460  0.32588  0.32717

  WITH EQUILIBRIUM REACTIONS

 Cp, KJ/(KG)(K)   18.8621  19.0291  19.2045  19.3889  19.5824  19.7857  19.9990  20.2228
 CONDUCTIVITY      9.3872   9.5612   9.7437   9.9353  10.1363  10.3473  10.5686  10.8008
 PRANDTL NUMBER    0.6394   0.6359   0.6322   0.6285   0.6246   0.6207   0.6167   0.6126

  WITH FROZEN REACTIONS

 Cp, KJ/(KG)(K)   16.7554  16.7743  16.7932  16.8120  16.8307  16.8494  16.8680  16.8866
 CONDUCTIVITY      7.5832   7.6220   7.6608   7.6998   7.7390   7.7782   7.8176   7.8572
 PRANDTL NUMBER    0.7031   0.7031   0.7031   0.7032   0.7032   0.7032   0.7031   0.7031

 MASS FRACTIONS

 *H               0.00119  0.00129  0.00139  0.00150  0.00162  0.00175  0.00188  0.00203
 *H2              0.99881  0.99871  0.99861  0.99850  0.99838  0.99825  0.99812  0.99797

  * THERMODYNAMIC PROPERTIES FITTED TO 20000.K

 NOTE. WEIGHT FRACTION OF FUEL IN TOTAL FUELS AND OF OXIDANT IN TOTAL OXIDANTS









               THERMODYNAMIC EQUILIBRIUM PROPERTIES AT ASSIGNED

                           TEMPERATURE AND PRESSURE

 CASE =                

             REACTANT                    WT FRACTION      ENERGY      TEMP
                                          (SEE NOTE)     KJ/KG-MOL      K  
 FUEL        H2                           1.0000000         0.000      0.000
 OXIDANT     H2                           1.0000000         0.000      0.000

 O/F=    1.00000  %FUEL= 50.000000  R,EQ.RATIO= 0.000000  PHI,EQ.RATIO=-1.000000

 THERMODYNAMIC PROPERTIES

 P, BAR           0.06000  0.06000  0.06000  0.06000  0.06000  0.06000  0.06700  0.06700
 T, K             1940.00  1950.00  1960.00  1970.00  1980.00  1990.00  1850.00  1860.00
 RHO, KG/CU M    7.4822-4 7.4427-4 7.4034-4 7.3645-4 7.3258-4 7.2875-4 8.7716-4 8.7237-4
 H, KJ/KG         25739.9  25945.7  26154.0  26365.0  26578.7  26795.3  23970.2  24156.9
 U, KJ/KG         17720.9  17884.1  18049.7  18217.8  18388.5  18562.1  16331.9  16476.7
 G, KJ/KG       -177621.5-178670.3-179720.1-180771.1-181823.1-182876.1-167386.4-168421.2
 S, KJ/(KG)(K)   104.8255 104.9313 105.0378 105.1452 105.2534 105.3625 103.4360 103.5366

 M, (1/n)           2.011    2.011    2.011    2.010    2.010    2.010    2.014    2.014
 (dLV/dLP)t      -1.00109 -1.00117 -1.00126 -1.00135 -1.00144 -1.00155 -1.00052 -1.00056
 (dLV/dLT)p        1.0306   1.0327   1.0349   1.0373   1.0398   1.0424   1.0153   1.0165
 Cp, KJ/(KG)(K)   20.4576  20.7037  20.9616  21.2319  21.5149  21.8112  18.5975  18.7488
 GAMMAs            1.2715   1.2687   1.2659   1.2630   1.2601   1.2572   1.2959   1.2937
 SON VEL,M/SEC     3193.1   3198.1   3203.0   3207.8   3212.6   3217.3   3146.2   3152.1

 TRANSPORT PROPERTIES (GASES ONLY)
   CONDUCTIVITY IN UNITS OF MILLIWATTS/(CM)(K)

 VISC,MILLIPOISE  0.32845  0.32975  0.33104  0.33234  0.33364  0.33495  0.31693  0.31820

  WITH EQUILIBRIUM REACTIONS

 Cp, KJ/(KG)(K)   20.4576  20.7037  20.9616  21.2319  21.5149  21.8112  18.5975  18.7488
 CONDUCTIVITY     11.0444  11.2999  11.5677  11.8486  12.1429  12.4514   9.1308   9.2896
 PRANDTL NUMBER    0.6084   0.6042   0.5999   0.5955   0.5912   0.5867   0.6455   0.6422

  WITH FROZEN REACTIONS

 Cp, KJ/(KG)(K)   16.9051  16.9235  16.9419  16.9603  16.9786  16.9968  16.7361  16.7551
 CONDUCTIVITY      7.8969   7.9368   7.9769   8.0171   8.0576   8.0982   7.5438   7.5824
 PRANDTL NUMBER    0.7031   0.7031   0.7031   0.7031   0.7030   0.7030   0.7031   0.7031

 MASS FRACTIONS

 *H               0.00218  0.00234  0.00252  0.00270  0.00290  0.00310  0.00104  0.00113
 *H2              0.99782  0.99766  0.99748  0.99730  0.99710  0.99690  0.99896  0.99887

  * THERMODYNAMIC PROPERTIES FITTED TO 20000.K

 NOTE. WEIGHT FRACTION OF FUEL IN TOTAL FUELS AND OF OXIDANT IN TOTAL OXIDANTS









               THERMODYNAMIC EQUILIBRIUM PROPERTIES AT ASSIGNED

                           TEMPERATURE AND PRESSURE

 CASE =                

             REACTANT                    WT FRACTION      ENERGY      TEMP
                                          (SEE NOTE)     KJ/KG-MOL      K  
 FUEL        H2                           1.0000000         0.000      0.000
 OXIDANT     H2                           1.0000000         0.000      0.000

 O/F=    1.00000  %FUEL= 50.000000  R,EQ.RATIO= 0.000000  PHI,EQ.RATIO=-1.000000

 THERMODYNAMIC PROPERTIES

 P, BAR           0.06700  0.06700  0.06700  0.06700  0.06700  0.06700  0.06700  0.06700
 T, K             1870.00  1880.00  1890.00  1900.00  1910.00  1920.00  1930.00  1940.00
 RHO, KG/CU M    8.6762-4 8.6292-4 8.5827-4 8.5366-4 8.4909-4 8.4456-4 8.4007-4 8.3561-4
 H, KJ/KG         24345.2  24535.1  24726.7  24920.1  25115.4  25312.7  25512.1  25713.6
 U, KJ/KG         16622.9  16770.8  16920.3  17071.5  17224.6  17379.5  17536.5  17695.5
 G, KJ/KG       -169457.1-170493.9-171531.8-172570.8-173610.7-174651.7-175693.7-176736.7
 S, KJ/(KG)(K)   103.6376 103.7388 103.8405 103.9426 104.0451 104.1481 104.2517 104.3558

 M, (1/n)           2.013    2.013    2.013    2.013    2.013    2.012    2.012    2.012
 (dLV/dLP)t      -1.00061 -1.00066 -1.00071 -1.00077 -1.00083 -1.00089 -1.00096 -1.00103
 (dLV/dLT)p        1.0177   1.0191   1.0205   1.0220   1.0236   1.0253   1.0270   1.0289
 Cp, KJ/(KG)(K)   18.9078  19.0748  19.2502  19.4344  19.6277  19.8306  20.0433  20.2664
 GAMMAs            1.2913   1.2890   1.2866   1.2841   1.2816   1.2790   1.2764   1.2737
 SON VEL,M/SEC     3157.9   3163.5   3169.1   3174.6   3180.0   3185.3   3190.6   3195.7

 TRANSPORT PROPERTIES (GASES ONLY)
   CONDUCTIVITY IN UNITS OF MILLIWATTS/(CM)(K)

 VISC,MILLIPOISE  0.31947  0.32074  0.32201  0.32329  0.32457  0.32585  0.32713  0.32841

  WITH EQUILIBRIUM REACTIONS

 Cp, KJ/(KG)(K)   18.9078  19.0748  19.2502  19.4344  19.6277  19.8306  20.0433  20.2664
 CONDUCTIVITY      9.4563   9.6310   9.8143  10.0066  10.2083  10.4198  10.6416  10.8741
 PRANDTL NUMBER    0.6388   0.6352   0.6316   0.6279   0.6240   0.6201   0.6161   0.6121

  WITH FROZEN REACTIONS

 Cp, KJ/(KG)(K)   16.7740  16.7929  16.8117  16.8304  16.8491  16.8676  16.8862  16.9047
 CONDUCTIVITY      7.6210   7.6598   7.6987   7.7377   7.7769   7.8162   7.8557   7.8953
 PRANDTL NUMBER    0.7032   0.7032   0.7032   0.7032   0.7032   0.7032   0.7032   0.7032

 MASS FRACTIONS

 *H               0.00122  0.00132  0.00142  0.00154  0.00165  0.00178  0.00192  0.00206
 *H2              0.99878  0.99868  0.99858  0.99846  0.99835  0.99822  0.99808  0.99794

  * THERMODYNAMIC PROPERTIES FITTED TO 20000.K

 NOTE. WEIGHT FRACTION OF FUEL IN TOTAL FUELS AND OF OXIDANT IN TOTAL OXIDANTS









               THERMODYNAMIC EQUILIBRIUM PROPERTIES AT ASSIGNED

                           TEMPERATURE AND PRESSURE

 CASE =                

             REACTANT                    WT FRACTION      ENERGY      TEMP
                                          (SEE NOTE)     KJ/KG-MOL      K  
 FUEL        H2                           1.0000000         0.000      0.000
 OXIDANT     H2                           1.0000000         0.000      0.000

 O/F=    1.00000  %FUEL= 50.000000  R,EQ.RATIO= 0.000000  PHI,EQ.RATIO=-1.000000

 THERMODYNAMIC PROPERTIES

 P, BAR           0.06700  0.06700  0.06700  0.06700  0.06700  0.07400  0.07400  0.07400
 T, K             1950.00  1960.00  1970.00  1980.00  1990.00  1850.00  1860.00  1870.00
 RHO, KG/CU M    8.3120-4 8.2682-4 8.2248-4 8.1818-4 8.1391-4 9.6885-4 9.6356-4 9.5833-4
 H, KJ/KG         25917.4  26123.6  26332.4  26543.7  26757.8  23958.8  24144.6  24331.9
 U, KJ/KG         17856.8  18020.3  18186.3  18354.8  18525.9  16320.9  16464.8  16610.1
 G, KJ/KG       -177780.8-178825.9-179872.1-180919.4-181967.7-166627.3-167658.0-168689.7
 S, KJ/(KG)(K)   104.4606 104.5661 104.6723 104.7793 104.8872 103.0195 103.1197 103.2201

 M, (1/n)           2.011    2.011    2.011    2.010    2.010    2.014    2.014    2.014
 (dLV/dLP)t      -1.00111 -1.00119 -1.00127 -1.00137 -1.00146 -1.00050 -1.00054 -1.00058
 (dLV/dLT)p        1.0309   1.0331   1.0353   1.0377   1.0402   1.0146   1.0157   1.0169
 Cp, KJ/(KG)(K)   20.5003  20.7454  21.0021  21.2708  21.5522  18.5071  18.6519  18.8041
 GAMMAs            1.2710   1.2682   1.2654   1.2626   1.2598   1.2972   1.2951   1.2928
 SON VEL,M/SEC     3200.8   3205.7   3210.7   3215.5   3220.3   3147.7   3153.7   3159.6

 TRANSPORT PROPERTIES (GASES ONLY)
   CONDUCTIVITY IN UNITS OF MILLIWATTS/(CM)(K)

 VISC,MILLIPOISE  0.32970  0.33099  0.33229  0.33359  0.33489  0.31692  0.31818  0.31945

  WITH EQUILIBRIUM REACTIONS

 Cp, KJ/(KG)(K)   20.5003  20.7454  21.0021  21.2708  21.5522  18.5071  18.6519  18.8041
 CONDUCTIVITY     11.1180  11.3735  11.6414  11.9220  12.2160   9.0532   9.2062   9.3666
 PRANDTL NUMBER    0.6079   0.6037   0.5995   0.5952   0.5908   0.6479   0.6446   0.6413

  WITH FROZEN REACTIONS

 Cp, KJ/(KG)(K)   16.9231  16.9414  16.9597  16.9780  16.9962  16.7359  16.7549  16.7738
 CONDUCTIVITY      7.9350   7.9750   8.0151   8.0554   8.0959   7.5431   7.5816   7.6202
 PRANDTL NUMBER    0.7032   0.7031   0.7031   0.7031   0.7031   0.7031   0.7032   0.7032

 MASS FRACTIONS

 *H               0.00222  0.00238  0.00256  0.00274  0.00294  0.00099  0.00107  0.00116
 *H2              0.99778  0.99762  0.99744  0.99726  0.99706  0.99901  0.99893  0.99884

  * THERMODYNAMIC PROPERTIES FITTED TO 20000.K

 NOTE. WEIGHT FRACTION OF FUEL IN TOTAL FUELS AND OF OXIDANT IN TOTAL OXIDANTS









               THERMODYNAMIC EQUILIBRIUM PROPERTIES AT ASSIGNED

                           TEMPERATURE AND PRESSURE

 CASE =                

             REACTANT                    WT FRACTION      ENERGY      TEMP
                                          (SEE NOTE)     KJ/KG-MOL      K  
 FUEL        H2                           1.0000000         0.000      0.000
 OXIDANT     H2                           1.0000000         0.000      0.000

 O/F=    1.00000  %FUEL= 50.000000  R,EQ.RATIO= 0.000000  PHI,EQ.RATIO=-1.000000

 THERMODYNAMIC PROPERTIES

 P, BAR           0.07400  0.07400  0.07400  0.07400  0.07400  0.07400  0.07400  0.07400
 T, K             1880.00  1890.00  1900.00  1910.00  1920.00  1930.00  1940.00  1950.00
 RHO, KG/CU M    9.5314-4 9.4800-4 9.4291-4 9.3787-4 9.3287-4 9.2792-4 9.2301-4 9.1814-4
 H, KJ/KG         24520.7  24711.2  24903.4  25097.4  25293.3  25491.1  25691.1  25893.2
 U, KJ/KG         16756.9  16905.3  17055.4  17207.2  17360.8  17516.3  17673.8  17833.5
 G, KJ/KG       -169722.4-170756.1-171790.8-172826.6-173863.4-174901.1-175940.0-176979.8
 S, KJ/(KG)(K)   103.3208 103.4219 103.5233 103.6251 103.7274 103.8302 103.9335 104.0375

 M, (1/n)           2.013    2.013    2.013    2.013    2.012    2.012    2.012    2.012
 (dLV/dLP)t      -1.00063 -1.00068 -1.00073 -1.00079 -1.00085 -1.00091 -1.00098 -1.00105
 (dLV/dLT)p        1.0181   1.0195   1.0209   1.0224   1.0240   1.0257   1.0275   1.0294
 Cp, KJ/(KG)(K)   18.9640  19.1318  19.3079  19.4927  19.6866  19.8899  20.1031  20.3265
 GAMMAs            1.2905   1.2882   1.2857   1.2833   1.2808   1.2782   1.2756   1.2730
 SON VEL,M/SEC     3165.3   3171.0   3176.6   3182.0   3187.4   3192.7   3198.0   3203.1

 TRANSPORT PROPERTIES (GASES ONLY)
   CONDUCTIVITY IN UNITS OF MILLIWATTS/(CM)(K)

 VISC,MILLIPOISE  0.32072  0.32199  0.32326  0.32454  0.32582  0.32710  0.32838  0.32966

  WITH EQUILIBRIUM REACTIONS

 Cp, KJ/(KG)(K)   18.9640  19.1318  19.3079  19.4927  19.6866  19.8899  20.1031  20.3265
 CONDUCTIVITY      9.5347   9.7110   9.8958  10.0895  10.2926  10.5055  10.7286  10.9625
 PRANDTL NUMBER    0.6379   0.6344   0.6307   0.6270   0.6232   0.6193   0.6153   0.6113

  WITH FROZEN REACTIONS

 Cp, KJ/(KG)(K)   16.7926  16.8114  16.8301  16.8487  16.8673  16.8858  16.9043  16.9227
 CONDUCTIVITY      7.6589   7.6978   7.7367   7.7758   7.8150   7.8544   7.8939   7.9335
 PRANDTL NUMBER    0.7032   0.7032   0.7032   0.7032   0.7032   0.7032   0.7032   0.7032

 MASS FRACTIONS

 *H               0.00125  0.00135  0.00146  0.00157  0.00170  0.00183  0.00196  0.00211
 *H2              0.99875  0.99865  0.99854  0.99843  0.99830  0.99817  0.99804  0.99789

  * THERMODYNAMIC PROPERTIES FITTED TO 20000.K

 NOTE. WEIGHT FRACTION OF FUEL IN TOTAL FUELS AND OF OXIDANT IN TOTAL OXIDANTS









               THERMODYNAMIC EQUILIBRIUM PROPERTIES AT ASSIGNED

                           TEMPERATURE AND PRESSURE

 CASE =                

             REACTANT                    WT FRACTION      ENERGY      TEMP
                                          (SEE NOTE)     KJ/KG-MOL      K  
 FUEL        H2                           1.0000000         0.000      0.000
 OXIDANT     H2                           1.0000000         0.000      0.000

 O/F=    1.00000  %FUEL= 50.000000  R,EQ.RATIO= 0.000000  PHI,EQ.RATIO=-1.000000

 THERMODYNAMIC PROPERTIES

 P, BAR           0.07400  0.07400  0.07400  0.07400  0.08250  0.08250  0.08250  0.08250
 T, K             1960.00  1970.00  1980.00  1990.00  1850.00  1860.00  1870.00  1880.00
 RHO, KG/CU M    9.1331-4 9.0853-4 9.0378-4 8.9907-4 1.0802-3 1.0743-3 1.0685-3 1.0627-3
 H, KJ/KG         26097.7  26304.5  26513.8  26725.8  23947.0  24131.9  24318.1  24505.8
 U, KJ/KG         17995.3  18159.4  18326.0  18495.1  16309.5  16452.5  16596.8  16742.5
 G, KJ/KG       -178020.7-179062.7-180105.7-181149.7-165796.9-166823.0-167850.1-168878.3
 S, KJ/(KG)(K)   104.1420 104.2473 104.3533 104.4600 102.5643 102.6639 102.7637 102.8639

 M, (1/n)           2.011    2.011    2.011    2.010    2.014    2.014    2.014    2.013
 (dLV/dLP)t      -1.00113 -1.00121 -1.00130 -1.00139 -1.00047 -1.00051 -1.00055 -1.00059
 (dLV/dLT)p        1.0315   1.0336   1.0358   1.0382   1.0138   1.0149   1.0160   1.0172
 Cp, KJ/(KG)(K)   20.5606  20.8057  21.0623  21.3308  18.4131  18.5513  18.6965  18.8488
 GAMMAs            1.2703   1.2676   1.2648   1.2620   1.2987   1.2965   1.2944   1.2921
 SON VEL,M/SEC     3208.2   3213.2   3218.1   3222.9   3149.4   3155.4   3161.4   3167.2

 TRANSPORT PROPERTIES (GASES ONLY)
   CONDUCTIVITY IN UNITS OF MILLIWATTS/(CM)(K)

 VISC,MILLIPOISE  0.33095  0.33225  0.33354  0.33484  0.31690  0.31816  0.31943  0.32070

  WITH EQUILIBRIUM REACTIONS

 Cp, KJ/(KG)(K)   20.5606  20.8057  21.0623  21.3308  18.4131  18.5513  18.6965  18.8488
 CONDUCTIVITY     11.2075  11.4643  11.7332  12.0148   8.9727   9.1196   9.2734   9.4347
 PRANDTL NUMBER    0.6071   0.6030   0.5987   0.5945   0.6503   0.6472   0.6440   0.6407

  WITH FROZEN REACTIONS

 Cp, KJ/(KG)(K)   16.9410  16.9593  16.9775  16.9957  16.7357  16.7547  16.7736  16.7924
 CONDUCTIVITY      7.9733   8.0133   8.0535   8.0938   7.5424   7.5808   7.6194   7.6580
 PRANDTL NUMBER    0.7032   0.7032   0.7031   0.7031   0.7032   0.7032   0.7032   0.7032

 MASS FRACTIONS

 *H               0.00227  0.00243  0.00261  0.00280  0.00094  0.00102  0.00110  0.00119
 *H2              0.99773  0.99757  0.99739  0.99720  0.99906  0.99898  0.99890  0.99881

  * THERMODYNAMIC PROPERTIES FITTED TO 20000.K

 NOTE. WEIGHT FRACTION OF FUEL IN TOTAL FUELS AND OF OXIDANT IN TOTAL OXIDANTS









               THERMODYNAMIC EQUILIBRIUM PROPERTIES AT ASSIGNED

                           TEMPERATURE AND PRESSURE

 CASE =                

             REACTANT                    WT FRACTION      ENERGY      TEMP
                                          (SEE NOTE)     KJ/KG-MOL      K  
 FUEL        H2                           1.0000000         0.000      0.000
 OXIDANT     H2                           1.0000000         0.000      0.000

 O/F=    1.00000  %FUEL= 50.000000  R,EQ.RATIO= 0.000000  PHI,EQ.RATIO=-1.000000

 THERMODYNAMIC PROPERTIES

 P, BAR           0.08250  0.08250  0.08250  0.08250  0.08250  0.08250  0.08250  0.08250
 T, K             1890.00  1900.00  1910.00  1920.00  1930.00  1940.00  1950.00  1960.00
 RHO, KG/CU M    1.0570-3 1.0513-3 1.0457-3 1.0401-3 1.0346-3 1.0291-3 1.0237-3 1.0183-3
 H, KJ/KG         24695.1  24886.0  25078.6  25273.1  25469.4  25667.7  25868.1  26070.7
 U, KJ/KG         16889.8  17038.6  17189.1  17341.3  17495.4  17651.3  17809.3  17969.3
 G, KJ/KG       -169907.4-170937.5-171968.7-173000.9-174034.1-175068.3-176103.5-177139.8
 S, KJ/(KG)(K)   102.9643 103.0650 103.1661 103.2677 103.3697 103.4722 103.5752 103.6788

 M, (1/n)           2.013    2.013    2.013    2.013    2.012    2.012    2.012    2.012
 (dLV/dLP)t      -1.00064 -1.00069 -1.00074 -1.00080 -1.00086 -1.00093 -1.00100 -1.00107
 (dLV/dLT)p        1.0185   1.0198   1.0212   1.0228   1.0244   1.0261   1.0279   1.0298
 Cp, KJ/(KG)(K)   19.0087  19.1765  19.3525  19.5371  19.7306  19.9335  20.1460  20.3686
 GAMMAs            1.2898   1.2875   1.2851   1.2827   1.2802   1.2777   1.2751   1.2725
 SON VEL,M/SEC     3173.0   3178.6   3184.2   3189.7   3195.1   3200.4   3205.6   3210.7

 TRANSPORT PROPERTIES (GASES ONLY)
   CONDUCTIVITY IN UNITS OF MILLIWATTS/(CM)(K)

 VISC,MILLIPOISE  0.32196  0.32324  0.32451  0.32578  0.32706  0.32834  0.32963  0.33091

  WITH EQUILIBRIUM REACTIONS

 Cp, KJ/(KG)(K)   19.0087  19.1765  19.3525  19.5371  19.7306  19.9335  20.1460  20.3686
 CONDUCTIVITY      9.6036   9.7806   9.9661  10.1605  10.3641  10.5774  10.8010  11.0351
 PRANDTL NUMBER    0.6373   0.6338   0.6301   0.6264   0.6226   0.6188   0.6148   0.6108

  WITH FROZEN REACTIONS

 Cp, KJ/(KG)(K)   16.8111  16.8298  16.8484  16.8670  16.8855  16.9039  16.9223  16.9406
 CONDUCTIVITY      7.6968   7.7356   7.7746   7.8138   7.8530   7.8924   7.9319   7.9716
 PRANDTL NUMBER    0.7032   0.7032   0.7032   0.7032   0.7032   0.7032   0.7032   0.7032

 MASS FRACTIONS

 *H               0.00128  0.00138  0.00149  0.00161  0.00173  0.00186  0.00200  0.00215
 *H2              0.99872  0.99862  0.99851  0.99839  0.99827  0.99814  0.99800  0.99785

  * THERMODYNAMIC PROPERTIES FITTED TO 20000.K

 NOTE. WEIGHT FRACTION OF FUEL IN TOTAL FUELS AND OF OXIDANT IN TOTAL OXIDANTS









               THERMODYNAMIC EQUILIBRIUM PROPERTIES AT ASSIGNED

                           TEMPERATURE AND PRESSURE

 CASE =                

             REACTANT                    WT FRACTION      ENERGY      TEMP
                                          (SEE NOTE)     KJ/KG-MOL      K  
 FUEL        H2                           1.0000000         0.000      0.000
 OXIDANT     H2                           1.0000000         0.000      0.000

 O/F=    1.00000  %FUEL= 50.000000  R,EQ.RATIO= 0.000000  PHI,EQ.RATIO=-1.000000

 THERMODYNAMIC PROPERTIES

 P, BAR           0.08250  0.08250  0.08250  0.09100  0.09100  0.09100  0.09100  0.09100
 T, K             1970.00  1980.00  1990.00  1850.00  1860.00  1870.00  1880.00  1890.00
 RHO, KG/CU M    1.0130-3 1.0077-3 1.0025-3 1.1915-3 1.1850-3 1.1786-3 1.1723-3 1.1659-3
 H, KJ/KG         26275.5  26482.8  26692.5  23937.0  24120.9  24306.3  24493.0  24681.3
 U, KJ/KG         18131.5  18296.1  18463.0  16299.8  16441.9  16585.4  16730.2  16876.5
 G, KJ/KG       -178177.1-179215.4-180254.8-165047.9-166070.0-167093.0-168117.0-169142.0
 S, KJ/(KG)(K)   103.7830 103.8880 103.9936 102.1540 102.2532 102.3525 102.4521 102.5520

 M, (1/n)           2.011    2.011    2.011    2.014    2.014    2.014    2.014    2.013
 (dLV/dLP)t      -1.00115 -1.00123 -1.00132 -1.00045 -1.00048 -1.00052 -1.00056 -1.00061
 (dLV/dLT)p        1.0318   1.0340   1.0362   1.0131   1.0142   1.0152   1.0164   1.0176
 Cp, KJ/(KG)(K)   20.6017  20.8456  21.1009  18.3327  18.4652  18.6042  18.7502  18.9033
 GAMMAs            1.2698   1.2671   1.2644   1.2999   1.2978   1.2957   1.2935   1.2913
 SON VEL,M/SEC     3215.8   3220.8   3225.7   3150.8   3156.9   3162.9   3168.8   3174.7

 TRANSPORT PROPERTIES (GASES ONLY)
   CONDUCTIVITY IN UNITS OF MILLIWATTS/(CM)(K)

 VISC,MILLIPOISE  0.33220  0.33349  0.33479  0.31688  0.31815  0.31941  0.32068  0.32194

  WITH EQUILIBRIUM REACTIONS

 Cp, KJ/(KG)(K)   20.6017  20.8456  21.1009  18.3327  18.4652  18.6042  18.7502  18.9033
 CONDUCTIVITY     11.2803  11.5370  11.8058   8.9037   9.0453   9.1937   9.3490   9.5116
 PRANDTL NUMBER    0.6067   0.6026   0.5984   0.6525   0.6495   0.6464   0.6431   0.6398

  WITH FROZEN REACTIONS

 Cp, KJ/(KG)(K)   16.9588  16.9770  16.9951  16.7356  16.7545  16.7734  16.7922  16.8109
 CONDUCTIVITY      8.0115   8.0515   8.0917   7.5418   7.5802   7.6186   7.6572   7.6959
 PRANDTL NUMBER    0.7032   0.7032   0.7032   0.7032   0.7032   0.7032   0.7032   0.7033

 MASS FRACTIONS

 *H               0.00230  0.00247  0.00265  0.00089  0.00097  0.00105  0.00113  0.00122
 *H2              0.99770  0.99753  0.99735  0.99911  0.99903  0.99895  0.99887  0.99878

  * THERMODYNAMIC PROPERTIES FITTED TO 20000.K

 NOTE. WEIGHT FRACTION OF FUEL IN TOTAL FUELS AND OF OXIDANT IN TOTAL OXIDANTS









               THERMODYNAMIC EQUILIBRIUM PROPERTIES AT ASSIGNED

                           TEMPERATURE AND PRESSURE

 CASE =                

             REACTANT                    WT FRACTION      ENERGY      TEMP
                                          (SEE NOTE)     KJ/KG-MOL      K  
 FUEL        H2                           1.0000000         0.000      0.000
 OXIDANT     H2                           1.0000000         0.000      0.000

 O/F=    1.00000  %FUEL= 50.000000  R,EQ.RATIO= 0.000000  PHI,EQ.RATIO=-1.000000

 THERMODYNAMIC PROPERTIES

 P, BAR           0.09100  0.09100  0.09100  0.09100  0.09100  0.09100  0.09100  0.09100
 T, K             1900.00  1910.00  1920.00  1930.00  1940.00  1950.00  1960.00  1970.00
 RHO, KG/CU M    1.1597-3 1.1535-3 1.1474-3 1.1413-3 1.1353-3 1.1293-3 1.1234-3 1.1175-3
 H, KJ/KG         24871.1  25062.6  25255.8  25450.8  25647.7  25846.6  26047.6  26250.7
 U, KJ/KG         17024.2  17173.6  17324.6  17477.4  17632.0  17788.5  17947.0  18107.6
 G, KJ/KG       -170168.0-171195.1-172223.1-173252.1-174282.2-175313.3-176345.4-177378.5
 S, KJ/(KG)(K)   102.6522 102.7527 102.8536 102.9549 103.0567 103.1589 103.2617 103.3651

 M, (1/n)           2.013    2.013    2.013    2.013    2.012    2.012    2.012    2.011
 (dLV/dLP)t      -1.00066 -1.00071 -1.00076 -1.00082 -1.00088 -1.00095 -1.00102 -1.00109
 (dLV/dLT)p        1.0189   1.0202   1.0217   1.0232   1.0248   1.0266   1.0284   1.0303
 Cp, KJ/(KG)(K)   19.0640  19.2324  19.4090  19.5942  19.7882  19.9914  20.2042  20.4270
 GAMMAs            1.2890   1.2867   1.2843   1.2819   1.2795   1.2769   1.2744   1.2718
 SON VEL,M/SEC     3180.4   3186.0   3191.6   3197.1   3202.5   3207.8   3213.0   3218.1

 TRANSPORT PROPERTIES (GASES ONLY)
   CONDUCTIVITY IN UNITS OF MILLIWATTS/(CM)(K)

 VISC,MILLIPOISE  0.32321  0.32448  0.32576  0.32703  0.32831  0.32959  0.33088  0.33216

  WITH EQUILIBRIUM REACTIONS

 Cp, KJ/(KG)(K)   19.0640  19.2324  19.4090  19.5942  19.7882  19.9914  20.2042  20.4270
 CONDUCTIVITY      9.6820   9.8604  10.0473  10.2430  10.4479  10.6626  10.8873  11.1226
 PRANDTL NUMBER    0.6364   0.6329   0.6293   0.6256   0.6218   0.6180   0.6140   0.6100

  WITH FROZEN REACTIONS

 Cp, KJ/(KG)(K)   16.8296  16.8482  16.8667  16.8852  16.9036  16.9219  16.9402  16.9584
 CONDUCTIVITY      7.7347   7.7736   7.8127   7.8518   7.8911   7.9306   7.9702   8.0099
 PRANDTL NUMBER    0.7033   0.7033   0.7033   0.7033   0.7033   0.7033   0.7033   0.7032

 MASS FRACTIONS

 *H               0.00132  0.00142  0.00153  0.00165  0.00177  0.00190  0.00204  0.00219
 *H2              0.99868  0.99858  0.99847  0.99835  0.99823  0.99810  0.99796  0.99781

  * THERMODYNAMIC PROPERTIES FITTED TO 20000.K

 NOTE. WEIGHT FRACTION OF FUEL IN TOTAL FUELS AND OF OXIDANT IN TOTAL OXIDANTS









               THERMODYNAMIC EQUILIBRIUM PROPERTIES AT ASSIGNED

                           TEMPERATURE AND PRESSURE

 CASE =                

             REACTANT                    WT FRACTION      ENERGY      TEMP
                                          (SEE NOTE)     KJ/KG-MOL      K  
 FUEL        H2                           1.0000000         0.000      0.000
 OXIDANT     H2                           1.0000000         0.000      0.000

 O/F=    1.00000  %FUEL= 50.000000  R,EQ.RATIO= 0.000000  PHI,EQ.RATIO=-1.000000

 THERMODYNAMIC PROPERTIES

 P, BAR           0.09100  0.09100  0.10000  0.10000  0.10000  0.10000  0.10000  0.10000
 T, K             1980.00  1990.00  1850.00  1860.00  1870.00  1880.00  1890.00  1900.00
 RHO, KG/CU M    1.1117-3 1.1059-3 1.3094-3 1.3023-3 1.2952-3 1.2883-3 1.2813-3 1.2745-3
 H, KJ/KG         26456.2  26664.0  23927.7  24110.9  24295.4  24481.3  24668.7  24857.5
 U, KJ/KG         18270.4  18435.5  16290.9  16432.3  16574.9  16718.9  16864.3  17011.1
 G, KJ/KG       -178412.7-179447.9-164327.7-165345.8-166364.8-167384.9-168406.0-169428.0
 S, KJ/(KG)(K)   103.4691 103.5738 101.7597 101.8584 101.9574 102.0565 102.1559 102.2555

 M, (1/n)           2.011    2.011    2.014    2.014    2.014    2.014    2.014    2.013
 (dLV/dLP)t      -1.00117 -1.00126 -1.00043 -1.00046 -1.00050 -1.00054 -1.00058 -1.00063
 (dLV/dLT)p        1.0323   1.0345   1.0125   1.0135   1.0145   1.0156   1.0168   1.0180
 Cp, KJ/(KG)(K)   20.6601  20.9040  18.2590  18.3862  18.5197  18.6598  18.8067  18.9608
 GAMMAs            1.2692   1.2665   1.3010   1.2990   1.2969   1.2948   1.2927   1.2905
 SON VEL,M/SEC     3223.2   3228.2   3152.1   3158.3   3164.3   3170.3   3176.2   3182.1

 TRANSPORT PROPERTIES (GASES ONLY)
   CONDUCTIVITY IN UNITS OF MILLIWATTS/(CM)(K)

 VISC,MILLIPOISE  0.33345  0.33474  0.31687  0.31813  0.31939  0.32066  0.32192  0.32319

  WITH EQUILIBRIUM REACTIONS

 Cp, KJ/(KG)(K)   20.6601  20.9040  18.2590  18.3862  18.5197  18.6598  18.8067  18.9608
 CONDUCTIVITY     11.3689  11.6267   8.8405   8.9773   9.1205   9.2704   9.4273   9.5916
 PRANDTL NUMBER    0.6060   0.6018   0.6545   0.6516   0.6485   0.6454   0.6422   0.6389

  WITH FROZEN REACTIONS

 Cp, KJ/(KG)(K)   16.9766  16.9947  16.7354  16.7543  16.7732  16.7920  16.8107  16.8293
 CONDUCTIVITY      8.0498   8.0899   7.5412   7.5796   7.6180   7.6565   7.6951   7.7339
 PRANDTL NUMBER    0.7032   0.7032   0.7032   0.7032   0.7032   0.7033   0.7033   0.7033

 MASS FRACTIONS

 *H               0.00235  0.00252  0.00085  0.00092  0.00100  0.00108  0.00116  0.00126
 *H2              0.99765  0.99748  0.99915  0.99908  0.99900  0.99892  0.99884  0.99874

  * THERMODYNAMIC PROPERTIES FITTED TO 20000.K

 NOTE. WEIGHT FRACTION OF FUEL IN TOTAL FUELS AND OF OXIDANT IN TOTAL OXIDANTS









               THERMODYNAMIC EQUILIBRIUM PROPERTIES AT ASSIGNED

                           TEMPERATURE AND PRESSURE

 CASE =                

             REACTANT                    WT FRACTION      ENERGY      TEMP
                                          (SEE NOTE)     KJ/KG-MOL      K  
 FUEL        H2                           1.0000000         0.000      0.000
 OXIDANT     H2                           1.0000000         0.000      0.000

 O/F=    1.00000  %FUEL= 50.000000  R,EQ.RATIO= 0.000000  PHI,EQ.RATIO=-1.000000

 THERMODYNAMIC PROPERTIES

 P, BAR           0.10000  0.10000  0.10000  0.10000  0.10000  0.10000  0.10000  0.10000
 T, K             1910.00  1920.00  1930.00  1940.00  1950.00  1960.00  1970.00  1980.00
 RHO, KG/CU M    1.2677-3 1.2609-3 1.2543-3 1.2477-3 1.2411-3 1.2346-3 1.2282-3 1.2218-3
 H, KJ/KG         25047.9  25240.0  25433.8  25629.4  25826.9  26026.4  26228.0  26431.8
 U, KJ/KG         17159.4  17309.4  17461.0  17614.3  17769.5  17926.6  18085.7  18246.9
 G, KJ/KG       -170451.1-171475.1-172500.2-173526.3-174553.3-175581.4-176610.6-177640.7
 S, KJ/(KG)(K)   102.3555 102.4558 102.5565 102.6575 102.7591 102.8611 102.9637 103.0669

 M, (1/n)           2.013    2.013    2.013    2.012    2.012    2.012    2.012    2.011
 (dLV/dLP)t      -1.00068 -1.00073 -1.00078 -1.00084 -1.00091 -1.00097 -1.00104 -1.00112
 (dLV/dLT)p        1.0193   1.0207   1.0221   1.0237   1.0253   1.0271   1.0289   1.0308
 Cp, KJ/(KG)(K)   19.1223  19.2917  19.4691  19.6550  19.8497  20.0535  20.2668  20.4900
 GAMMAs            1.2882   1.2859   1.2835   1.2811   1.2787   1.2762   1.2736   1.2711
 SON VEL,M/SEC     3187.8   3193.4   3199.0   3204.4   3209.8   3215.1   3220.3   3225.5

 TRANSPORT PROPERTIES (GASES ONLY)
   CONDUCTIVITY IN UNITS OF MILLIWATTS/(CM)(K)

 VISC,MILLIPOISE  0.32446  0.32573  0.32701  0.32828  0.32956  0.33084  0.33213  0.33341

  WITH EQUILIBRIUM REACTIONS

 Cp, KJ/(KG)(K)   19.1223  19.2917  19.4691  19.6550  19.8497  20.0535  20.2668  20.4900
 CONDUCTIVITY      9.7635   9.9435  10.1320  10.3292  10.5357  10.7519  10.9781  11.2149
 PRANDTL NUMBER    0.6355   0.6320   0.6284   0.6247   0.6209   0.6171   0.6131   0.6092

  WITH FROZEN REACTIONS

 Cp, KJ/(KG)(K)   16.8479  16.8664  16.8849  16.9033  16.9216  16.9398  16.9580  16.9762
 CONDUCTIVITY      7.7727   7.8117   7.8508   7.8900   7.9294   7.9688   8.0085   8.0483
 PRANDTL NUMBER    0.7033   0.7033   0.7033   0.7033   0.7033   0.7033   0.7033   0.7033

 MASS FRACTIONS

 *H               0.00135  0.00146  0.00157  0.00169  0.00182  0.00195  0.00209  0.00224
 *H2              0.99865  0.99854  0.99843  0.99831  0.99818  0.99805  0.99791  0.99776

  * THERMODYNAMIC PROPERTIES FITTED TO 20000.K

 NOTE. WEIGHT FRACTION OF FUEL IN TOTAL FUELS AND OF OXIDANT IN TOTAL OXIDANTS









               THERMODYNAMIC EQUILIBRIUM PROPERTIES AT ASSIGNED

                           TEMPERATURE AND PRESSURE

 CASE =                

             REACTANT                    WT FRACTION      ENERGY      TEMP
                                          (SEE NOTE)     KJ/KG-MOL      K  
 FUEL        H2                           1.0000000         0.000      0.000
 OXIDANT     H2                           1.0000000         0.000      0.000

 O/F=    1.00000  %FUEL= 50.000000  R,EQ.RATIO= 0.000000  PHI,EQ.RATIO=-1.000000

 THERMODYNAMIC PROPERTIES

 P, BAR           0.10000
 T, K             1990.00
 RHO, KG/CU M    1.2154-3
 H, KJ/KG         26637.8
 U, KJ/KG         18410.3
 G, KJ/KG       -178671.9
 S, KJ/(KG)(K)   103.1707

 M, (1/n)           2.011
 (dLV/dLP)t      -1.00120
 (dLV/dLT)p        1.0329
 Cp, KJ/(KG)(K)   20.7235
 GAMMAs            1.2685
 SON VEL,M/SEC     3230.5

 TRANSPORT PROPERTIES (GASES ONLY)
   CONDUCTIVITY IN UNITS OF MILLIWATTS/(CM)(K)

 VISC,MILLIPOISE  0.33470

  WITH EQUILIBRIUM REACTIONS

 Cp, KJ/(KG)(K)   20.7235
 CONDUCTIVITY     11.4625
 PRANDTL NUMBER    0.6051

  WITH FROZEN REACTIONS

 Cp, KJ/(KG)(K)   16.9943
 CONDUCTIVITY      8.0883
 PRANDTL NUMBER    0.7032

 MASS FRACTIONS

 *H               0.00240
 *H2              0.99760

  * THERMODYNAMIC PROPERTIES FITTED TO 20000.K

 NOTE. WEIGHT FRACTION OF FUEL IN TOTAL FUELS AND OF OXIDANT IN TOTAL OXIDANTS



  
