
 *******************************************************************************

         NASA-GLENN CHEMICAL EQUILIBRIUM PROGRAM CEA2, MAY 21, 2004
                   BY  BONNIE MCBRIDE AND SANFORD GORDON
      REFS: NASA RP-1311, PART I, 1994 AND NASA RP-1311, PART II, 1996

 *******************************************************************************



  prob tp ions
  p,bar= 0.11,0.12,0.132,0.148,0.165,0.18,0.2,0.225,0.25,0.28,0.31,0.35,0.39,0.44
 ,0.49
  t,k= 1950,1960,1970,1980,1990,2000,2010,2020,2030,2040,2050,2060,2070,2080,2090
  
  reac
  na H2                wt%=100.0000
  
  output short
  output siunits
  output transport
  
 end





               THERMODYNAMIC EQUILIBRIUM PROPERTIES AT ASSIGNED

                           TEMPERATURE AND PRESSURE

 CASE =                

             REACTANT                    WT FRACTION      ENERGY      TEMP
                                          (SEE NOTE)     KJ/KG-MOL      K  
             H2                           1.0000000         0.000      0.000

 O/F=    0.00000  %FUEL=100.000000  R,EQ.RATIO= 0.000000  PHI,EQ.RATIO= 0.000000

 THERMODYNAMIC PROPERTIES

 P, BAR           0.11000  0.11000  0.11000  0.11000  0.11000  0.11000  0.11000  0.11000
 T, K             1950.00  1960.00  1970.00  1980.00  1990.00  2000.00  2010.00  2020.00
 RHO, KG/CU M    1.3653-3 1.3582-3 1.3511-3 1.3441-3 1.3371-3 1.3302-3 1.3234-3 1.3166-3
 H, KJ/KG         25807.9  26006.0  26206.1  26408.3  26612.6  26819.3  27028.3  27239.9
 U, KJ/KG         17751.2  17906.9  18064.6  18224.3  18386.1  18550.0  18716.3  18885.0
 G, KJ/KG       -173785.9-174809.5-175834.6-176860.7-177887.8-178915.9-179945.1-180975.4
 S, KJ/(KG)(K)   102.3558 102.4569 102.5587 102.6611 102.7640 102.8676 102.9719 103.0769

 M, (1/n)           2.012    2.012    2.012    2.012    2.011    2.011    2.011    2.010
 (dLV/dLP)t      -1.00086 -1.00093 -1.00100 -1.00107 -1.00114 -1.00122 -1.00131 -1.00140
 (dLV/dLT)p        1.0242   1.0258   1.0276   1.0294   1.0314   1.0334   1.0356   1.0379
 Cp, KJ/(KG)(K)   19.7131  19.9083  20.1125  20.3261  20.5495  20.7831  21.0272  21.2822
 GAMMAs            1.2804   1.2779   1.2755   1.2729   1.2704   1.2678   1.2652   1.2625
 SON VEL,M/SEC     3211.8   3217.2   3222.4   3227.7   3232.8   3237.9   3242.9   3247.8

 TRANSPORT PROPERTIES (GASES ONLY)
   CONDUCTIVITY IN UNITS OF MILLIWATTS/(CM)(K)

 VISC,MILLIPOISE  0.32953  0.33081  0.33209  0.33338  0.33466  0.33595  0.33725  0.33855

  WITH EQUILIBRIUM REACTIONS

 Cp, KJ/(KG)(K)   19.7131  19.9083  20.1125  20.3261  20.5495  20.7831  21.0272  21.2822
 CONDUCTIVITY     10.4140  10.6214  10.8388  11.0663  11.3043  11.5531  11.8133  12.0853
 PRANDTL NUMBER    0.6238   0.6201   0.6162   0.6123   0.6084   0.6044   0.6003   0.5962

  WITH FROZEN REACTIONS

 Cp, KJ/(KG)(K)   16.9213  16.9395  16.9577  16.9758  16.9938  17.0118  17.0298  17.0477
 CONDUCTIVITY      7.9287   7.9676   8.0071   8.0468   8.0866   8.1267   8.1668   8.2072
 PRANDTL NUMBER    0.7033   0.7033   0.7033   0.7033   0.7033   0.7033   0.7032   0.7032

 MOLE FRACTIONS

 *H               0.00346  0.00371  0.00398  0.00427  0.00458  0.00490  0.00524  0.00561
 *H2              0.99654  0.99629  0.99602  0.99573  0.99542  0.99510  0.99476  0.99439

  * THERMODYNAMIC PROPERTIES FITTED TO 20000.K

 NOTE. WEIGHT FRACTION OF FUEL IN TOTAL FUELS AND OF OXIDANT IN TOTAL OXIDANTS









               THERMODYNAMIC EQUILIBRIUM PROPERTIES AT ASSIGNED

                           TEMPERATURE AND PRESSURE

 CASE =                

             REACTANT                    WT FRACTION      ENERGY      TEMP
                                          (SEE NOTE)     KJ/KG-MOL      K  
             H2                           1.0000000         0.000      0.000

 O/F=    0.00000  %FUEL=100.000000  R,EQ.RATIO= 0.000000  PHI,EQ.RATIO= 0.000000

 THERMODYNAMIC PROPERTIES

 P, BAR           0.11000  0.11000  0.11000  0.11000  0.11000  0.11000  0.11000  0.12000
 T, K             2030.00  2040.00  2050.00  2060.00  2070.00  2080.00  2090.00  1950.00
 RHO, KG/CU M    1.3099-3 1.3032-3 1.2965-3 1.2899-3 1.2834-3 1.2769-3 1.2705-3 1.4896-3
 H, KJ/KG         27454.0  27670.9  27890.6  28113.3  28339.0  28568.0  28800.3  25791.3
 U, KJ/KG         19056.1  19229.9  19406.4  19585.7  19768.0  19953.4  20142.0  17735.2
 G, KJ/KG       -182006.7-183039.0-184072.5-185107.0-186142.6-187179.3-188217.1-173084.5
 S, KJ/(KG)(K)   103.1826 103.2892 103.3966 103.5050 103.6143 103.7246 103.8361 101.9876

 M, (1/n)           2.010    2.009    2.009    2.009    2.008    2.008    2.007    2.013
 (dLV/dLP)t      -1.00150 -1.00160 -1.00171 -1.00182 -1.00194 -1.00207 -1.00220 -1.00083
 (dLV/dLT)p        1.0403   1.0428   1.0455   1.0483   1.0512   1.0543   1.0576   1.0231
 Cp, KJ/(KG)(K)   21.5485  21.8264  22.1165  22.4192  22.7347  23.0637  23.4065  19.5940
 GAMMAs            1.2599   1.2572   1.2544   1.2517   1.2489   1.2462   1.2434   1.2819
 SON VEL,M/SEC     3252.7   3257.6   3262.3   3267.1   3271.8   3276.5   3281.1   3213.5

 TRANSPORT PROPERTIES (GASES ONLY)
   CONDUCTIVITY IN UNITS OF MILLIWATTS/(CM)(K)

 VISC,MILLIPOISE  0.33985  0.34115  0.34246  0.34378  0.34510  0.34642  0.34775  0.32951

  WITH EQUILIBRIUM REACTIONS

 Cp, KJ/(KG)(K)   21.5485  21.8264  22.1165  22.4192  22.7347  23.0637  23.4065  19.5940
 CONDUCTIVITY     12.3696  12.6667  12.9770  13.3011  13.6396  13.9928  14.3615  10.3069
 PRANDTL NUMBER    0.5920   0.5879   0.5837   0.5794   0.5752   0.5710   0.5668   0.6264

  WITH FROZEN REACTIONS

 Cp, KJ/(KG)(K)   17.0655  17.0833  17.1010  17.1187  17.1364  17.1540  17.1715  16.9210
 CONDUCTIVITY      8.2478   8.2885   8.3295   8.3706   8.4120   8.4536   8.4955   7.9272
 PRANDTL NUMBER    0.7032   0.7031   0.7031   0.7031   0.7030   0.7030   0.7029   0.7033

 MOLE FRACTIONS

 *H               0.00599  0.00640  0.00683  0.00728  0.00776  0.00827  0.00880  0.00331
 *H2              0.99401  0.99360  0.99317  0.99272  0.99224  0.99173  0.99120  0.99669

  * THERMODYNAMIC PROPERTIES FITTED TO 20000.K

 NOTE. WEIGHT FRACTION OF FUEL IN TOTAL FUELS AND OF OXIDANT IN TOTAL OXIDANTS









               THERMODYNAMIC EQUILIBRIUM PROPERTIES AT ASSIGNED

                           TEMPERATURE AND PRESSURE

 CASE =                

             REACTANT                    WT FRACTION      ENERGY      TEMP
                                          (SEE NOTE)     KJ/KG-MOL      K  
             H2                           1.0000000         0.000      0.000

 O/F=    0.00000  %FUEL=100.000000  R,EQ.RATIO= 0.000000  PHI,EQ.RATIO= 0.000000

 THERMODYNAMIC PROPERTIES

 P, BAR           0.12000  0.12000  0.12000  0.12000  0.12000  0.12000  0.12000  0.12000
 T, K             1960.00  1970.00  1980.00  1990.00  2000.00  2010.00  2020.00  2030.00
 RHO, KG/CU M    1.4818-3 1.4741-3 1.4664-3 1.4588-3 1.4513-3 1.4438-3 1.4365-3 1.4291-3
 H, KJ/KG         25988.2  26187.0  26387.8  26590.7  26795.8  27003.1  27212.9  27425.2
 U, KJ/KG         17889.8  18046.2  18204.5  18364.9  18527.4  18692.0  18859.0  19028.4
 G, KJ/KG       -174104.8-175126.2-176148.6-177172.0-178196.5-179221.9-180248.5-181276.0
 S, KJ/(KG)(K)   102.0883 102.1894 102.2911 102.3933 102.4961 102.5995 102.7037 102.8085

 M, (1/n)           2.012    2.012    2.012    2.011    2.011    2.011    2.010    2.010
 (dLV/dLP)t      -1.00089 -1.00095 -1.00102 -1.00110 -1.00117 -1.00125 -1.00134 -1.00143
 (dLV/dLT)p        1.0247   1.0264   1.0282   1.0300   1.0320   1.0341   1.0363   1.0386
 Cp, KJ/(KG)(K)   19.7816  19.9779  20.1832  20.3978  20.6222  20.8566  21.1015  21.3571
 GAMMAs            1.2795   1.2771   1.2746   1.2721   1.2696   1.2670   1.2644   1.2618
 SON VEL,M/SEC     3219.0   3224.3   3229.6   3234.8   3240.0   3245.0   3250.0   3255.0

 TRANSPORT PROPERTIES (GASES ONLY)
   CONDUCTIVITY IN UNITS OF MILLIWATTS/(CM)(K)

 VISC,MILLIPOISE  0.33078  0.33206  0.33334  0.33463  0.33592  0.33721  0.33850  0.33980

  WITH EQUILIBRIUM REACTIONS

 Cp, KJ/(KG)(K)   19.7816  19.9779  20.1832  20.3978  20.6222  20.8566  21.1015  21.3571
 CONDUCTIVITY     10.5074  10.7173  10.9367  11.1662  11.4061  11.6569  11.9189  12.1928
 PRANDTL NUMBER    0.6227   0.6190   0.6152   0.6113   0.6073   0.6033   0.5993   0.5952

  WITH FROZEN REACTIONS

 Cp, KJ/(KG)(K)   16.9392  16.9574  16.9755  16.9935  17.0115  17.0294  17.0472  17.0651
 CONDUCTIVITY      7.9664   8.0059   8.0455   8.0853   8.1252   8.1652   8.2055   8.2459
 PRANDTL NUMBER    0.7033   0.7033   0.7033   0.7033   0.7033   0.7033   0.7033   0.7032

 MOLE FRACTIONS

 *H               0.00355  0.00381  0.00409  0.00438  0.00469  0.00502  0.00537  0.00574
 *H2              0.99645  0.99619  0.99591  0.99562  0.99531  0.99498  0.99463  0.99426

  * THERMODYNAMIC PROPERTIES FITTED TO 20000.K

 NOTE. WEIGHT FRACTION OF FUEL IN TOTAL FUELS AND OF OXIDANT IN TOTAL OXIDANTS









               THERMODYNAMIC EQUILIBRIUM PROPERTIES AT ASSIGNED

                           TEMPERATURE AND PRESSURE

 CASE =                

             REACTANT                    WT FRACTION      ENERGY      TEMP
                                          (SEE NOTE)     KJ/KG-MOL      K  
             H2                           1.0000000         0.000      0.000

 O/F=    0.00000  %FUEL=100.000000  R,EQ.RATIO= 0.000000  PHI,EQ.RATIO= 0.000000

 THERMODYNAMIC PROPERTIES

 P, BAR           0.12000  0.12000  0.12000  0.12000  0.12000  0.12000  0.13200  0.13200
 T, K             2040.00  2050.00  2060.00  2070.00  2080.00  2090.00  1950.00  1960.00
 RHO, KG/CU M    1.4218-3 1.4146-3 1.4074-3 1.4003-3 1.3932-3 1.3862-3 1.6386-3 1.6301-3
 H, KJ/KG         27640.1  27857.7  28078.2  28301.6  28528.2  28757.9  25774.0  25969.6
 U, KJ/KG         19200.3  19374.8  19552.0  19732.1  19915.1  20101.2  17718.5  17871.8
 G, KJ/KG       -182304.6-183334.3-184365.0-185396.9-186429.8-187463.8-172316.7-173333.0
 S, KJ/(KG)(K)   102.9141 103.0205 103.1278 103.2360 103.3452 103.4553 101.5849 101.6850

 M, (1/n)           2.010    2.009    2.009    2.008    2.008    2.007    2.013    2.012
 (dLV/dLP)t      -1.00153 -1.00163 -1.00174 -1.00186 -1.00198 -1.00211 -1.00079 -1.00085
 (dLV/dLT)p        1.0410   1.0436   1.0462   1.0491   1.0520   1.0551   1.0221   1.0236
 Cp, KJ/(KG)(K)   21.6240  21.9025  22.1930  22.4958  22.8115  23.1404  19.4693  19.6490
 GAMMAs            1.2591   1.2565   1.2538   1.2510   1.2483   1.2456   1.2835   1.2811
 SON VEL,M/SEC     3259.9   3264.7   3269.5   3274.3   3279.0   3283.7   3215.4   3220.9

 TRANSPORT PROPERTIES (GASES ONLY)
   CONDUCTIVITY IN UNITS OF MILLIWATTS/(CM)(K)

 VISC,MILLIPOISE  0.34110  0.34241  0.34372  0.34504  0.34636  0.34768  0.32948  0.33075

  WITH EQUILIBRIUM REACTIONS

 Cp, KJ/(KG)(K)   21.6240  21.9025  22.1930  22.4958  22.8115  23.1404  19.4693  19.6490
 CONDUCTIVITY     12.4789  12.7777  13.0897  13.4154  13.7554  14.1101  10.1952  10.3882
 PRANDTL NUMBER    0.5911   0.5869   0.5828   0.5786   0.5744   0.5702   0.6292   0.6256

  WITH FROZEN REACTIONS

 Cp, KJ/(KG)(K)   17.0828  17.1005  17.1182  17.1358  17.1533  17.1709  16.9207  16.9389
 CONDUCTIVITY      8.2865   8.3273   8.3684   8.4096   8.4511   8.4927   7.9261   7.9653
 PRANDTL NUMBER    0.7032   0.7032   0.7031   0.7031   0.7030   0.7030   0.7034   0.7034

 MOLE FRACTIONS

 *H               0.00613  0.00654  0.00697  0.00743  0.00792  0.00843  0.00316  0.00339
 *H2              0.99387  0.99346  0.99303  0.99257  0.99208  0.99157  0.99684  0.99661

  * THERMODYNAMIC PROPERTIES FITTED TO 20000.K

 NOTE. WEIGHT FRACTION OF FUEL IN TOTAL FUELS AND OF OXIDANT IN TOTAL OXIDANTS









               THERMODYNAMIC EQUILIBRIUM PROPERTIES AT ASSIGNED

                           TEMPERATURE AND PRESSURE

 CASE =                

             REACTANT                    WT FRACTION      ENERGY      TEMP
                                          (SEE NOTE)     KJ/KG-MOL      K  
             H2                           1.0000000         0.000      0.000

 O/F=    0.00000  %FUEL=100.000000  R,EQ.RATIO= 0.000000  PHI,EQ.RATIO= 0.000000

 THERMODYNAMIC PROPERTIES

 P, BAR           0.13200  0.13200  0.13200  0.13200  0.13200  0.13200  0.13200  0.13200
 T, K             1970.00  1980.00  1990.00  2000.00  2010.00  2020.00  2030.00  2040.00
 RHO, KG/CU M    1.6216-3 1.6132-3 1.6049-3 1.5966-3 1.5884-3 1.5803-3 1.5722-3 1.5642-3
 H, KJ/KG         26167.0  26366.3  26567.7  26771.1  26976.8  27184.7  27395.1  27607.9
 U, KJ/KG         18026.9  18183.9  18342.7  18503.6  18666.6  18831.8  18999.4  19169.3
 G, KJ/KG       -174350.3-175368.7-176388.1-177408.4-178429.9-179452.3-180475.8-181500.3
 S, KJ/(KG)(K)   101.7854 101.8864 101.9878 102.0898 102.1924 102.2956 102.3994 102.5040

 M, (1/n)           2.012    2.012    2.012    2.011    2.011    2.011    2.010    2.010
 (dLV/dLP)t      -1.00091 -1.00097 -1.00104 -1.00112 -1.00120 -1.00128 -1.00137 -1.00146
 (dLV/dLT)p        1.0252   1.0269   1.0286   1.0305   1.0325   1.0346   1.0368   1.0391
 Cp, KJ/(KG)(K)   19.8370  20.0335  20.2390  20.4537  20.6781  20.9124  21.1569  21.4122
 GAMMAs            1.2788   1.2764   1.2739   1.2715   1.2690   1.2664   1.2638   1.2612
 SON VEL,M/SEC     3226.4   3231.7   3237.0   3242.2   3247.3   3252.4   3257.4   3262.4

 TRANSPORT PROPERTIES (GASES ONLY)
   CONDUCTIVITY IN UNITS OF MILLIWATTS/(CM)(K)

 VISC,MILLIPOISE  0.33203  0.33331  0.33459  0.33588  0.33717  0.33846  0.33975  0.34105

  WITH EQUILIBRIUM REACTIONS

 Cp, KJ/(KG)(K)   19.8370  20.0335  20.2390  20.4537  20.6781  20.9124  21.1569  21.4122
 CONDUCTIVITY     10.5901  10.8011  11.0217  11.2522  11.4931  11.7448  12.0077  12.2823
 PRANDTL NUMBER    0.6219   0.6182   0.6144   0.6105   0.6066   0.6026   0.5986   0.5946

  WITH FROZEN REACTIONS

 Cp, KJ/(KG)(K)   16.9570  16.9751  16.9931  17.0111  17.0290  17.0468  17.0646  17.0823
 CONDUCTIVITY      8.0046   8.0441   8.0838   8.1236   8.1635   8.2037   8.2440   8.2845
 PRANDTL NUMBER    0.7034   0.7034   0.7034   0.7033   0.7033   0.7033   0.7033   0.7032

 MOLE FRACTIONS

 *H               0.00364  0.00390  0.00418  0.00447  0.00479  0.00512  0.00547  0.00584
 *H2              0.99636  0.99610  0.99582  0.99553  0.99521  0.99488  0.99453  0.99416

  * THERMODYNAMIC PROPERTIES FITTED TO 20000.K

 NOTE. WEIGHT FRACTION OF FUEL IN TOTAL FUELS AND OF OXIDANT IN TOTAL OXIDANTS









               THERMODYNAMIC EQUILIBRIUM PROPERTIES AT ASSIGNED

                           TEMPERATURE AND PRESSURE

 CASE =                

             REACTANT                    WT FRACTION      ENERGY      TEMP
                                          (SEE NOTE)     KJ/KG-MOL      K  
             H2                           1.0000000         0.000      0.000

 O/F=    0.00000  %FUEL=100.000000  R,EQ.RATIO= 0.000000  PHI,EQ.RATIO= 0.000000

 THERMODYNAMIC PROPERTIES

 P, BAR           0.13200  0.13200  0.13200  0.13200  0.13200  0.14800  0.14800  0.14800
 T, K             2050.00  2060.00  2070.00  2080.00  2090.00  1950.00  1960.00  1970.00
 RHO, KG/CU M    1.5563-3 1.5484-3 1.5406-3 1.5328-3 1.5251-3 1.8374-3 1.8278-3 1.8183-3
 H, KJ/KG         27823.3  28041.5  28262.5  28486.5  28713.5  25754.2  25948.3  26144.2
 U, KJ/KG         19341.7  19516.7  19694.4  19875.0  20058.5  17699.4  17851.3  18004.9
 G, KJ/KG       -182525.8-183552.5-184580.2-185608.9-186638.8-171395.1-172406.6-173419.1
 S, KJ/(KG)(K)   102.6094 102.7155 102.8225 102.9305 103.0394 101.1022 101.2015 101.3011

 M, (1/n)           2.010    2.009    2.009    2.008    2.008    2.013    2.013    2.012
 (dLV/dLP)t      -1.00156 -1.00166 -1.00177 -1.00189 -1.00201 -1.00074 -1.00080 -1.00086
 (dLV/dLT)p        1.0415   1.0441   1.0468   1.0496   1.0526   1.0208   1.0223   1.0238
 Cp, KJ/(KG)(K)   21.6785  21.9562  22.2458  22.5475  22.8619  19.3273  19.4980  19.6765
 GAMMAs            1.2586   1.2560   1.2533   1.2506   1.2479   1.2853   1.2831   1.2808
 SON VEL,M/SEC     3267.3   3272.1   3277.0   3281.7   3286.5   3217.6   3223.2   3228.7

 TRANSPORT PROPERTIES (GASES ONLY)
   CONDUCTIVITY IN UNITS OF MILLIWATTS/(CM)(K)

 VISC,MILLIPOISE  0.34235  0.34366  0.34497  0.34629  0.34761  0.32945  0.33072  0.33199

  WITH EQUILIBRIUM REACTIONS

 Cp, KJ/(KG)(K)   21.6785  21.9562  22.2458  22.5475  22.8619  19.3273  19.4980  19.6765
 CONDUCTIVITY     12.5690  12.8683  13.1808  13.5068  13.8468  10.0679  10.2524  10.4451
 PRANDTL NUMBER    0.5905   0.5864   0.5822   0.5781   0.5739   0.6324   0.6290   0.6254

  WITH FROZEN REACTIONS

 Cp, KJ/(KG)(K)   17.1000  17.1176  17.1352  17.1527  17.1702  16.9204  16.9386  16.9567
 CONDUCTIVITY      8.3251   8.3660   8.4071   8.4483   8.4898   7.9248   7.9639   8.0032
 PRANDTL NUMBER    0.7032   0.7032   0.7031   0.7031   0.7030   0.7034   0.7034   0.7034

 MOLE FRACTIONS

 *H               0.00623  0.00665  0.00709  0.00755  0.00804  0.00298  0.00320  0.00343
 *H2              0.99377  0.99335  0.99291  0.99245  0.99196  0.99702  0.99680  0.99657

  * THERMODYNAMIC PROPERTIES FITTED TO 20000.K

 NOTE. WEIGHT FRACTION OF FUEL IN TOTAL FUELS AND OF OXIDANT IN TOTAL OXIDANTS









               THERMODYNAMIC EQUILIBRIUM PROPERTIES AT ASSIGNED

                           TEMPERATURE AND PRESSURE

 CASE =                

             REACTANT                    WT FRACTION      ENERGY      TEMP
                                          (SEE NOTE)     KJ/KG-MOL      K  
             H2                           1.0000000         0.000      0.000

 O/F=    0.00000  %FUEL=100.000000  R,EQ.RATIO= 0.000000  PHI,EQ.RATIO= 0.000000

 THERMODYNAMIC PROPERTIES

 P, BAR           0.14800  0.14800  0.14800  0.14800  0.14800  0.14800  0.14800  0.14800
 T, K             1980.00  1990.00  2000.00  2010.00  2020.00  2030.00  2040.00  2050.00
 RHO, KG/CU M    1.8089-3 1.7996-3 1.7904-3 1.7812-3 1.7721-3 1.7631-3 1.7541-3 1.7452-3
 H, KJ/KG         26341.9  26541.5  26743.1  26946.8  27152.6  27360.7  27571.2  27784.2
 U, KJ/KG         18160.3  18317.5  18476.6  18637.7  18800.9  18966.3  19133.9  19304.0
 G, KJ/KG       -174432.6-175447.1-176462.6-177479.1-178496.7-179515.3-180534.9-181555.5
 S, KJ/(KG)(K)   101.4012 101.5018 101.6028 101.7044 101.8066 101.9094 102.0128 102.1169

 M, (1/n)           2.012    2.012    2.012    2.011    2.011    2.011    2.010    2.010
 (dLV/dLP)t      -1.00092 -1.00099 -1.00106 -1.00113 -1.00121 -1.00129 -1.00138 -1.00147
 (dLV/dLT)p        1.0254   1.0270   1.0288   1.0307   1.0327   1.0347   1.0369   1.0392
 Cp, KJ/(KG)(K)   19.8631  20.0581  20.2619  20.4747  20.6969  20.9289  21.1709  21.4233
 GAMMAs            1.2784   1.2761   1.2737   1.2712   1.2687   1.2662   1.2637   1.2611
 SON VEL,M/SEC     3234.1   3239.5   3244.8   3250.0   3255.2   3260.3   3265.3   3270.3

 TRANSPORT PROPERTIES (GASES ONLY)
   CONDUCTIVITY IN UNITS OF MILLIWATTS/(CM)(K)

 VISC,MILLIPOISE  0.33327  0.33455  0.33583  0.33712  0.33841  0.33970  0.34099  0.34229

  WITH EQUILIBRIUM REACTIONS

 Cp, KJ/(KG)(K)   19.8631  20.0581  20.2619  20.4747  20.6969  20.9289  21.1709  21.4233
 CONDUCTIVITY     10.6465  10.8570  11.0768  11.3064  11.5463  11.7967  12.0582  12.3312
 PRANDTL NUMBER    0.6218   0.6181   0.6143   0.6105   0.6066   0.6027   0.5987   0.5947

  WITH FROZEN REACTIONS

 Cp, KJ/(KG)(K)   16.9747  16.9927  17.0106  17.0285  17.0463  17.0640  17.0817  17.0994
 CONDUCTIVITY      8.0426   8.0821   8.1218   8.1616   8.2016   8.2418   8.2821   8.3226
 PRANDTL NUMBER    0.7034   0.7034   0.7034   0.7034   0.7033   0.7033   0.7033   0.7033

 MOLE FRACTIONS

 *H               0.00368  0.00395  0.00423  0.00452  0.00483  0.00517  0.00552  0.00589
 *H2              0.99632  0.99605  0.99577  0.99548  0.99517  0.99483  0.99448  0.99411

  * THERMODYNAMIC PROPERTIES FITTED TO 20000.K

 NOTE. WEIGHT FRACTION OF FUEL IN TOTAL FUELS AND OF OXIDANT IN TOTAL OXIDANTS









               THERMODYNAMIC EQUILIBRIUM PROPERTIES AT ASSIGNED

                           TEMPERATURE AND PRESSURE

 CASE =                

             REACTANT                    WT FRACTION      ENERGY      TEMP
                                          (SEE NOTE)     KJ/KG-MOL      K  
             H2                           1.0000000         0.000      0.000

 O/F=    0.00000  %FUEL=100.000000  R,EQ.RATIO= 0.000000  PHI,EQ.RATIO= 0.000000

 THERMODYNAMIC PROPERTIES

 P, BAR           0.14800  0.14800  0.14800  0.14800  0.16500  0.16500  0.16500  0.16500
 T, K             2060.00  2070.00  2080.00  2090.00  1950.00  1960.00  1970.00  1980.00
 RHO, KG/CU M    1.7364-3 1.7277-3 1.7190-3 1.7104-3 2.0486-3 2.0380-3 2.0274-3 2.0169-3
 H, KJ/KG         27999.7  28217.9  28439.0  28662.9  25736.5  25929.3  26123.7  26319.9
 U, KJ/KG         19476.5  19651.5  19829.3  20009.8  17682.3  17832.9  17985.2  18139.1
 G, KJ/KG       -182577.2-183600.0-184623.8-185648.7-170519.3-171526.2-172534.1-173543.0
 S, KJ/(KG)(K)   102.2218 102.3275 102.4340 102.5414 100.6440 100.7426 100.8415 100.9409

 M, (1/n)           2.010    2.009    2.009    2.008    2.013    2.013    2.013    2.012
 (dLV/dLP)t      -1.00157 -1.00167 -1.00178 -1.00190 -1.00071 -1.00076 -1.00081 -1.00087
 (dLV/dLT)p        1.0416   1.0442   1.0468   1.0496   1.0197   1.0211   1.0225   1.0240
 Cp, KJ/(KG)(K)   21.6866  21.9609  22.2469  22.5447  19.1996  19.3622  19.5322  19.7099
 GAMMAs            1.2586   1.2559   1.2533   1.2507   1.2870   1.2848   1.2826   1.2803
 SON VEL,M/SEC     3275.2   3280.1   3284.9   3289.7   3219.6   3225.2   3230.8   3236.4

 TRANSPORT PROPERTIES (GASES ONLY)
   CONDUCTIVITY IN UNITS OF MILLIWATTS/(CM)(K)

 VISC,MILLIPOISE  0.34359  0.34490  0.34621  0.34753  0.32942  0.33069  0.33196  0.33324

  WITH EQUILIBRIUM REACTIONS

 Cp, KJ/(KG)(K)   21.6866  21.9609  22.2469  22.5447  19.1996  19.3622  19.5322  19.7099
 CONDUCTIVITY     12.6161  12.9133  13.2234  13.5468   9.9536  10.1303  10.3148  10.5076
 PRANDTL NUMBER    0.5906   0.5866   0.5825   0.5784   0.6354   0.6321   0.6286   0.6251

  WITH FROZEN REACTIONS

 Cp, KJ/(KG)(K)   17.1169  17.1345  17.1520  17.1694  16.9201  16.9382  16.9563  16.9744
 CONDUCTIVITY      8.3633   8.4042   8.4452   8.4865   7.9237   7.9627   8.0019   8.0412
 PRANDTL NUMBER    0.7032   0.7032   0.7031   0.7031   0.7034   0.7034   0.7034   0.7034

 MOLE FRACTIONS

 *H               0.00628  0.00670  0.00713  0.00759  0.00282  0.00303  0.00325  0.00349
 *H2              0.99372  0.99330  0.99287  0.99241  0.99718  0.99697  0.99675  0.99651

  * THERMODYNAMIC PROPERTIES FITTED TO 20000.K

 NOTE. WEIGHT FRACTION OF FUEL IN TOTAL FUELS AND OF OXIDANT IN TOTAL OXIDANTS









               THERMODYNAMIC EQUILIBRIUM PROPERTIES AT ASSIGNED

                           TEMPERATURE AND PRESSURE

 CASE =                

             REACTANT                    WT FRACTION      ENERGY      TEMP
                                          (SEE NOTE)     KJ/KG-MOL      K  
             H2                           1.0000000         0.000      0.000

 O/F=    0.00000  %FUEL=100.000000  R,EQ.RATIO= 0.000000  PHI,EQ.RATIO= 0.000000

 THERMODYNAMIC PROPERTIES

 P, BAR           0.16500  0.16500  0.16500  0.16500  0.16500  0.16500  0.16500  0.16500
 T, K             1990.00  2000.00  2010.00  2020.00  2030.00  2040.00  2050.00  2060.00
 RHO, KG/CU M    2.0065-3 1.9962-3 1.9860-3 1.9759-3 1.9659-3 1.9559-3 1.9460-3 1.9362-3
 H, KJ/KG         26517.9  26717.9  26919.8  27123.7  27329.9  27538.2  27749.0  27962.2
 U, KJ/KG         18294.8  18452.3  18611.7  18773.1  18936.6  19102.2  19270.1  19440.3
 G, KJ/KG       -174552.9-175563.8-176575.7-177588.7-178602.6-179617.6-180633.5-181650.6
 S, KJ/(KG)(K)   101.0406 101.1408 101.2415 101.3428 101.4446 101.5470 101.6500 101.7537

 M, (1/n)           2.012    2.012    2.012    2.011    2.011    2.011    2.010    2.010
 (dLV/dLP)t      -1.00093 -1.00100 -1.00107 -1.00114 -1.00122 -1.00131 -1.00139 -1.00149
 (dLV/dLT)p        1.0256   1.0273   1.0291   1.0309   1.0329   1.0350   1.0372   1.0394
 Cp, KJ/(KG)(K)   19.8955  20.0894  20.2919  20.5033  20.7239  20.9540  21.1940  21.4442
 GAMMAs            1.2780   1.2757   1.2733   1.2709   1.2684   1.2660   1.2635   1.2609
 SON VEL,M/SEC     3241.8   3247.2   3252.5   3257.7   3262.9   3268.0   3273.0   3278.0

 TRANSPORT PROPERTIES (GASES ONLY)
   CONDUCTIVITY IN UNITS OF MILLIWATTS/(CM)(K)

 VISC,MILLIPOISE  0.33451  0.33579  0.33707  0.33836  0.33965  0.34094  0.34223  0.34353

  WITH EQUILIBRIUM REACTIONS

 Cp, KJ/(KG)(K)   19.8955  20.0894  20.2919  20.5033  20.7239  20.9540  21.1940  21.4442
 CONDUCTIVITY     10.7089  10.9191  11.1387  11.3679  11.6071  11.8568  12.1174  12.3893
 PRANDTL NUMBER    0.6215   0.6178   0.6141   0.6103   0.6064   0.6025   0.5986   0.5946

  WITH FROZEN REACTIONS

 Cp, KJ/(KG)(K)   16.9923  17.0102  17.0281  17.0458  17.0635  17.0812  17.0988  17.1164
 CONDUCTIVITY      8.0806   8.1202   8.1599   8.1997   8.2398   8.2799   8.3203   8.3608
 PRANDTL NUMBER    0.7034   0.7034   0.7034   0.7034   0.7034   0.7033   0.7033   0.7033

 MOLE FRACTIONS

 *H               0.00374  0.00400  0.00428  0.00458  0.00489  0.00523  0.00558  0.00595
 *H2              0.99626  0.99600  0.99572  0.99542  0.99511  0.99477  0.99442  0.99405

  * THERMODYNAMIC PROPERTIES FITTED TO 20000.K

 NOTE. WEIGHT FRACTION OF FUEL IN TOTAL FUELS AND OF OXIDANT IN TOTAL OXIDANTS









               THERMODYNAMIC EQUILIBRIUM PROPERTIES AT ASSIGNED

                           TEMPERATURE AND PRESSURE

 CASE =                

             REACTANT                    WT FRACTION      ENERGY      TEMP
                                          (SEE NOTE)     KJ/KG-MOL      K  
             H2                           1.0000000         0.000      0.000

 O/F=    0.00000  %FUEL=100.000000  R,EQ.RATIO= 0.000000  PHI,EQ.RATIO= 0.000000

 THERMODYNAMIC PROPERTIES

 P, BAR           0.16500  0.16500  0.16500  0.18000  0.18000  0.18000  0.18000  0.18000
 T, K             2070.00  2080.00  2090.00  1950.00  1960.00  1970.00  1980.00  1990.00
 RHO, KG/CU M    1.9265-3 1.9168-3 1.9072-3 2.2350-3 2.2234-3 2.2119-3 2.2004-3 2.1891-3
 H, KJ/KG         28177.9  28396.3  28617.5  25722.9  25914.7  26108.1  26303.2  26500.0
 U, KJ/KG         19613.0  19788.2  19966.1  17669.2  17818.9  17970.2  18123.0  18277.5
 G, KJ/KG       -182668.6-183687.7-184707.9-169818.5-170821.7-171826.0-172831.2-173837.4
 S, KJ/(KG)(K)   101.8582 101.9635 102.0695 100.2776 100.3757 100.4742 100.5729 100.6721

 M, (1/n)           2.009    2.009    2.009    2.013    2.013    2.013    2.013    2.012
 (dLV/dLP)t      -1.00159 -1.00169 -1.00180 -1.00068 -1.00073 -1.00078 -1.00083 -1.00089
 (dLV/dLT)p        1.0419   1.0444   1.0470   1.0189   1.0202   1.0216   1.0230   1.0245
 Cp, KJ/(KG)(K)   21.7049  21.9766  22.2596  19.1023  19.2588  19.4223  19.5932  19.7717
 GAMMAs            1.2584   1.2558   1.2532   1.2883   1.2862   1.2840   1.2818   1.2795
 SON VEL,M/SEC     3283.0   3287.9   3292.7   3221.1   3226.8   3232.5   3238.1   3243.6

 TRANSPORT PROPERTIES (GASES ONLY)
   CONDUCTIVITY IN UNITS OF MILLIWATTS/(CM)(K)

 VISC,MILLIPOISE  0.34483  0.34614  0.34745  0.32940  0.33067  0.33194  0.33321  0.33448

  WITH EQUILIBRIUM REACTIONS

 Cp, KJ/(KG)(K)   21.7049  21.9766  22.2596  19.1023  19.2588  19.4223  19.5932  19.7717
 CONDUCTIVITY     12.6729  12.9687  13.2771   9.8664  10.0372  10.2155  10.4017  10.5961
 PRANDTL NUMBER    0.5906   0.5866   0.5825   0.6377   0.6345   0.6311   0.6277   0.6241

  WITH FROZEN REACTIONS

 Cp, KJ/(KG)(K)   17.1339  17.1513  17.1687  16.9199  16.9380  16.9561  16.9741  16.9920
 CONDUCTIVITY      8.4015   8.4425   8.4836   7.9228   7.9618   8.0009   8.0401   8.0795
 PRANDTL NUMBER    0.7032   0.7032   0.7032   0.7035   0.7035   0.7035   0.7035   0.7035

 MOLE FRACTIONS

 *H               0.00634  0.00676  0.00719  0.00270  0.00290  0.00311  0.00334  0.00358
 *H2              0.99366  0.99324  0.99281  0.99730  0.99710  0.99689  0.99666  0.99642

  * THERMODYNAMIC PROPERTIES FITTED TO 20000.K

 NOTE. WEIGHT FRACTION OF FUEL IN TOTAL FUELS AND OF OXIDANT IN TOTAL OXIDANTS









               THERMODYNAMIC EQUILIBRIUM PROPERTIES AT ASSIGNED

                           TEMPERATURE AND PRESSURE

 CASE =                

             REACTANT                    WT FRACTION      ENERGY      TEMP
                                          (SEE NOTE)     KJ/KG-MOL      K  
             H2                           1.0000000         0.000      0.000

 O/F=    0.00000  %FUEL=100.000000  R,EQ.RATIO= 0.000000  PHI,EQ.RATIO= 0.000000

 THERMODYNAMIC PROPERTIES

 P, BAR           0.18000  0.18000  0.18000  0.18000  0.18000  0.18000  0.18000  0.18000
 T, K             2000.00  2010.00  2020.00  2030.00  2040.00  2050.00  2060.00  2070.00
 RHO, KG/CU M    2.1779-3 2.1668-3 2.1557-3 2.1448-3 2.1339-3 2.1232-3 2.1125-3 2.1019-3
 H, KJ/KG         26698.6  26899.2  27101.7  27306.3  27513.1  27722.1  27933.5  28147.4
 U, KJ/KG         18433.8  18591.9  18751.9  18913.9  19078.0  19244.3  19412.8  19583.6
 G, KJ/KG       -174844.7-175852.9-176862.1-177872.3-178883.6-179895.8-180909.1-181923.4
 S, KJ/(KG)(K)   100.7717 100.8717 100.9722 101.0732 101.1748 101.2771 101.3799 101.4835

 M, (1/n)           2.012    2.012    2.011    2.011    2.011    2.010    2.010    2.010
 (dLV/dLP)t      -1.00096 -1.00103 -1.00110 -1.00117 -1.00125 -1.00134 -1.00142 -1.00152
 (dLV/dLT)p        1.0261   1.0278   1.0296   1.0315   1.0335   1.0356   1.0378   1.0401
 Cp, KJ/(KG)(K)   19.9580  20.1526  20.3557  20.5677  20.7887  21.0192  21.2595  21.5099
 GAMMAs            1.2772   1.2749   1.2726   1.2702   1.2677   1.2653   1.2628   1.2603
 SON VEL,M/SEC     3249.0   3254.4   3259.7   3264.9   3270.1   3275.2   3280.3   3285.3

 TRANSPORT PROPERTIES (GASES ONLY)
   CONDUCTIVITY IN UNITS OF MILLIWATTS/(CM)(K)

 VISC,MILLIPOISE  0.33576  0.33704  0.33832  0.33961  0.34090  0.34219  0.34348  0.34478

  WITH EQUILIBRIUM REACTIONS

 Cp, KJ/(KG)(K)   19.9580  20.1526  20.3557  20.5677  20.7887  21.0192  21.2595  21.5099
 CONDUCTIVITY     10.7990  11.0108  11.2319  11.4626  11.7033  11.9544  12.2164  12.4896
 PRANDTL NUMBER    0.6205   0.6169   0.6132   0.6094   0.6055   0.6017   0.5977   0.5938

  WITH FROZEN REACTIONS

 Cp, KJ/(KG)(K)   17.0099  17.0277  17.0455  17.0632  17.0808  17.0984  17.1159  17.1334
 CONDUCTIVITY      8.1190   8.1586   8.1983   8.2382   8.2783   8.3186   8.3590   8.3996
 PRANDTL NUMBER    0.7034   0.7034   0.7034   0.7034   0.7034   0.7034   0.7033   0.7033

 MOLE FRACTIONS

 *H               0.00383  0.00410  0.00439  0.00469  0.00500  0.00534  0.00570  0.00607
 *H2              0.99617  0.99590  0.99561  0.99531  0.99500  0.99466  0.99430  0.99393

  * THERMODYNAMIC PROPERTIES FITTED TO 20000.K

 NOTE. WEIGHT FRACTION OF FUEL IN TOTAL FUELS AND OF OXIDANT IN TOTAL OXIDANTS









               THERMODYNAMIC EQUILIBRIUM PROPERTIES AT ASSIGNED

                           TEMPERATURE AND PRESSURE

 CASE =                

             REACTANT                    WT FRACTION      ENERGY      TEMP
                                          (SEE NOTE)     KJ/KG-MOL      K  
             H2                           1.0000000         0.000      0.000

 O/F=    0.00000  %FUEL=100.000000  R,EQ.RATIO= 0.000000  PHI,EQ.RATIO= 0.000000

 THERMODYNAMIC PROPERTIES

 P, BAR           0.18000  0.18000  0.20000  0.20000  0.20000  0.20000  0.20000  0.20000
 T, K             2080.00  2090.00  1950.00  1960.00  1970.00  1980.00  1990.00  2000.00
 RHO, KG/CU M    2.0914-3 2.0809-3 2.4835-3 2.4706-3 2.4578-3 2.4451-3 2.4326-3 2.4201-3
 H, KJ/KG         28363.8  28582.8  25707.3  25897.9  26090.1  26283.9  26479.3  26676.5
 U, KJ/KG         19756.9  19932.8  17654.2  17802.8  17952.8  18104.4  18257.6  18412.4
 G, KJ/KG       -182938.8-183955.2-168970.0-169968.8-170968.6-171969.4-172971.2-173973.9
 S, KJ/(KG)(K)   101.5878 101.6928  99.8345  99.9320 100.0298 100.1279 100.2264 100.3252

 M, (1/n)           2.009    2.009    2.013    2.013    2.013    2.013    2.012    2.012
 (dLV/dLP)t      -1.00162 -1.00172 -1.00064 -1.00069 -1.00074 -1.00079 -1.00085 -1.00091
 (dLV/dLT)p        1.0425   1.0450   1.0179   1.0192   1.0205   1.0218   1.0233   1.0248
 Cp, KJ/(KG)(K)   21.7707  22.0423  18.9901  19.1394  19.2955  19.4585  19.6287  19.8064
 GAMMAs            1.2578   1.2552   1.2898   1.2878   1.2856   1.2835   1.2813   1.2791
 SON VEL,M/SEC     3290.2   3295.1   3222.9   3228.7   3234.5   3240.1   3245.7   3251.2

 TRANSPORT PROPERTIES (GASES ONLY)
   CONDUCTIVITY IN UNITS OF MILLIWATTS/(CM)(K)

 VISC,MILLIPOISE  0.34609  0.34740  0.32937  0.33064  0.33191  0.33318  0.33445  0.33573

  WITH EQUILIBRIUM REACTIONS

 Cp, KJ/(KG)(K)   21.7707  22.0423  18.9901  19.1394  19.2955  19.4585  19.6287  19.8064
 CONDUCTIVITY     12.7745  13.0714   9.7658   9.9298  10.1009  10.2795  10.4658  10.6603
 PRANDTL NUMBER    0.5898   0.5858   0.6405   0.6373   0.6340   0.6307   0.6273   0.6238

  WITH FROZEN REACTIONS

 Cp, KJ/(KG)(K)   17.1508  17.1682  16.9196  16.9377  16.9558  16.9738  16.9917  17.0095
 CONDUCTIVITY      8.4403   8.4813   7.9219   7.9607   7.9998   8.0389   8.0781   8.1175
 PRANDTL NUMBER    0.7033   0.7032   0.7035   0.7035   0.7035   0.7035   0.7035   0.7035

 MOLE FRACTIONS

 *H               0.00647  0.00689  0.00256  0.00275  0.00295  0.00317  0.00340  0.00364
 *H2              0.99353  0.99311  0.99744  0.99725  0.99705  0.99683  0.99660  0.99636

  * THERMODYNAMIC PROPERTIES FITTED TO 20000.K

 NOTE. WEIGHT FRACTION OF FUEL IN TOTAL FUELS AND OF OXIDANT IN TOTAL OXIDANTS









               THERMODYNAMIC EQUILIBRIUM PROPERTIES AT ASSIGNED

                           TEMPERATURE AND PRESSURE

 CASE =                

             REACTANT                    WT FRACTION      ENERGY      TEMP
                                          (SEE NOTE)     KJ/KG-MOL      K  
             H2                           1.0000000         0.000      0.000

 O/F=    0.00000  %FUEL=100.000000  R,EQ.RATIO= 0.000000  PHI,EQ.RATIO= 0.000000

 THERMODYNAMIC PROPERTIES

 P, BAR           0.20000  0.20000  0.20000  0.20000  0.20000  0.20000  0.20000  0.20000
 T, K             2010.00  2020.00  2030.00  2040.00  2050.00  2060.00  2070.00  2080.00
 RHO, KG/CU M    2.4078-3 2.3955-3 2.3834-3 2.3713-3 2.3594-3 2.3476-3 2.3358-3 2.3241-3
 H, KJ/KG         26875.5  27076.3  27279.2  27484.1  27691.2  27900.5  28112.1  28326.2
 U, KJ/KG         18569.0  18727.5  18887.8  19050.1  19214.5  19381.0  19549.7  19720.8
 G, KJ/KG       -174977.7-175982.4-176988.1-177994.9-179002.6-180011.4-181021.2-182032.0
 S, KJ/(KG)(K)   100.4244 100.5241 100.6243 100.7250 100.8263 100.9281 101.0306 101.1338

 M, (1/n)           2.012    2.012    2.011    2.011    2.011    2.010    2.010    2.010
 (dLV/dLP)t      -1.00097 -1.00104 -1.00111 -1.00119 -1.00127 -1.00135 -1.00144 -1.00153
 (dLV/dLT)p        1.0264   1.0281   1.0299   1.0318   1.0338   1.0358   1.0380   1.0403
 Cp, KJ/(KG)(K)   19.9919  20.1855  20.3874  20.5980  20.8175  21.0463  21.2847  21.5330
 GAMMAs            1.2768   1.2745   1.2722   1.2698   1.2674   1.2650   1.2626   1.2601
 SON VEL,M/SEC     3256.7   3262.0   3267.3   3272.6   3277.7   3282.9   3287.9   3293.0

 TRANSPORT PROPERTIES (GASES ONLY)
   CONDUCTIVITY IN UNITS OF MILLIWATTS/(CM)(K)

 VISC,MILLIPOISE  0.33700  0.33828  0.33956  0.34085  0.34214  0.34343  0.34473  0.34603

  WITH EQUILIBRIUM REACTIONS

 Cp, KJ/(KG)(K)   19.9919  20.1855  20.3874  20.5980  20.8175  21.0463  21.2847  21.5330
 CONDUCTIVITY     10.8632  11.0749  11.2957  11.5261  11.7663  12.0168  12.2780  12.5503
 PRANDTL NUMBER    0.6202   0.6166   0.6129   0.6091   0.6053   0.6015   0.5976   0.5937

  WITH FROZEN REACTIONS

 Cp, KJ/(KG)(K)   17.0273  17.0451  17.0627  17.0804  17.0979  17.1154  17.1328  17.1502
 CONDUCTIVITY      8.1570   8.1967   8.2365   8.2764   8.3165   8.3568   8.3973   8.4379
 PRANDTL NUMBER    0.7035   0.7035   0.7034   0.7034   0.7034   0.7034   0.7033   0.7033

 MOLE FRACTIONS

 *H               0.00389  0.00416  0.00445  0.00475  0.00507  0.00541  0.00576  0.00614
 *H2              0.99611  0.99584  0.99555  0.99525  0.99493  0.99459  0.99424  0.99386

  * THERMODYNAMIC PROPERTIES FITTED TO 20000.K

 NOTE. WEIGHT FRACTION OF FUEL IN TOTAL FUELS AND OF OXIDANT IN TOTAL OXIDANTS









               THERMODYNAMIC EQUILIBRIUM PROPERTIES AT ASSIGNED

                           TEMPERATURE AND PRESSURE

 CASE =                

             REACTANT                    WT FRACTION      ENERGY      TEMP
                                          (SEE NOTE)     KJ/KG-MOL      K  
             H2                           1.0000000         0.000      0.000

 O/F=    0.00000  %FUEL=100.000000  R,EQ.RATIO= 0.000000  PHI,EQ.RATIO= 0.000000

 THERMODYNAMIC PROPERTIES

 P, BAR           0.20000  0.22500  0.22500  0.22500  0.22500  0.22500  0.22500  0.22500
 T, K             2090.00  1950.00  1960.00  1970.00  1980.00  1990.00  2000.00  2010.00
 RHO, KG/CU M    2.3125-3 2.7942-3 2.7797-3 2.7653-3 2.7510-3 2.7369-3 2.7229-3 2.7091-3
 H, KJ/KG         28542.8  25690.8  25880.2  26071.1  26263.5  26457.4  26653.0  26850.4
 U, KJ/KG         19894.4  17638.3  17785.7  17934.5  18084.7  18236.5  18389.8  18544.9
 G, KJ/KG       -183043.9-168021.5-169015.4-170010.2-171006.0-172002.8-173000.6-173999.4
 S, KJ/(KG)(K)   101.2377  99.3396  99.4365  99.5336  99.6310  99.7288  99.8268  99.9252

 M, (1/n)           2.009    2.013    2.013    2.013    2.013    2.013    2.012    2.012
 (dLV/dLP)t      -1.00163 -1.00060 -1.00065 -1.00070 -1.00075 -1.00080 -1.00086 -1.00092
 (dLV/dLT)p        1.0427   1.0169   1.0181   1.0193   1.0206   1.0219   1.0234   1.0249
 Cp, KJ/(KG)(K)   21.7916  18.8714  19.0132  19.1613  19.3160  19.4775  19.6461  19.8220
 GAMMAs            1.2576   1.2915   1.2895   1.2874   1.2853   1.2832   1.2811   1.2789
 SON VEL,M/SEC     3297.9   3224.8   3230.7   3236.5   3242.3   3248.0   3253.6   3259.1

 TRANSPORT PROPERTIES (GASES ONLY)
   CONDUCTIVITY IN UNITS OF MILLIWATTS/(CM)(K)

 VISC,MILLIPOISE  0.34733  0.32935  0.33061  0.33188  0.33315  0.33442  0.33569  0.33696

  WITH EQUILIBRIUM REACTIONS

 Cp, KJ/(KG)(K)   21.7916  18.8714  19.0132  19.1613  19.3160  19.4775  19.6461  19.8220
 CONDUCTIVITY     12.8340   9.6595   9.8162   9.9797  10.1502  10.3281  10.5136  10.7071
 PRANDTL NUMBER    0.5897   0.6434   0.6404   0.6372   0.6340   0.6307   0.6273   0.6238

  WITH FROZEN REACTIONS

 Cp, KJ/(KG)(K)   17.1675  16.9193  16.9374  16.9555  16.9734  16.9913  17.0092  17.0269
 CONDUCTIVITY      8.4787   7.9208   7.9596   7.9985   8.0376   8.0767   8.1160   8.1554
 PRANDTL NUMBER    0.7033   0.7035   0.7035   0.7035   0.7035   0.7035   0.7035   0.7035

 MOLE FRACTIONS

 *H               0.00654  0.00242  0.00260  0.00279  0.00299  0.00320  0.00343  0.00367
 *H2              0.99346  0.99758  0.99740  0.99721  0.99701  0.99680  0.99657  0.99633

  * THERMODYNAMIC PROPERTIES FITTED TO 20000.K

 NOTE. WEIGHT FRACTION OF FUEL IN TOTAL FUELS AND OF OXIDANT IN TOTAL OXIDANTS









               THERMODYNAMIC EQUILIBRIUM PROPERTIES AT ASSIGNED

                           TEMPERATURE AND PRESSURE

 CASE =                

             REACTANT                    WT FRACTION      ENERGY      TEMP
                                          (SEE NOTE)     KJ/KG-MOL      K  
             H2                           1.0000000         0.000      0.000

 O/F=    0.00000  %FUEL=100.000000  R,EQ.RATIO= 0.000000  PHI,EQ.RATIO= 0.000000

 THERMODYNAMIC PROPERTIES

 P, BAR           0.22500  0.22500  0.22500  0.22500  0.22500  0.22500  0.22500  0.22500
 T, K             2020.00  2030.00  2040.00  2050.00  2060.00  2070.00  2080.00  2090.00
 RHO, KG/CU M    2.6953-3 2.6817-3 2.6681-3 2.6547-3 2.6414-3 2.6282-3 2.6151-3 2.6021-3
 H, KJ/KG         27049.5  27250.5  27453.5  27658.4  27865.6  28074.9  28286.5  28500.6
 U, KJ/KG         18701.6  18860.2  19020.6  19183.0  19347.4  19513.9  19682.7  19853.7
 G, KJ/KG       -174999.1-175999.8-177001.6-178004.3-179008.0-180012.8-181018.6-182025.3
 S, KJ/(KG)(K)   100.0241 100.1233 100.2231 100.3233 100.4241 100.5255 100.6274 100.7301

 M, (1/n)           2.012    2.012    2.011    2.011    2.011    2.010    2.010    2.010
 (dLV/dLP)t      -1.00098 -1.00105 -1.00112 -1.00119 -1.00127 -1.00136 -1.00145 -1.00154
 (dLV/dLT)p        1.0265   1.0282   1.0300   1.0318   1.0338   1.0359   1.0380   1.0403
 Cp, KJ/(KG)(K)   20.0054  20.1968  20.3963  20.6043  20.8210  21.0467  21.2818  21.5265
 GAMMAs            1.2766   1.2744   1.2721   1.2697   1.2674   1.2650   1.2626   1.2602
 SON VEL,M/SEC     3264.5   3269.9   3275.2   3280.5   3285.7   3290.9   3295.9   3301.0

 TRANSPORT PROPERTIES (GASES ONLY)
   CONDUCTIVITY IN UNITS OF MILLIWATTS/(CM)(K)

 VISC,MILLIPOISE  0.33824  0.33952  0.34080  0.34209  0.34337  0.34467  0.34596  0.34726

  WITH EQUILIBRIUM REACTIONS

 Cp, KJ/(KG)(K)   20.0054  20.1968  20.3963  20.6043  20.8210  21.0467  21.2818  21.5265
 CONDUCTIVITY     10.9089  11.1193  11.3387  11.5674  11.8058  12.0543  12.3132  12.5829
 PRANDTL NUMBER    0.6203   0.6167   0.6130   0.6093   0.6056   0.6018   0.5979   0.5941

  WITH FROZEN REACTIONS

 Cp, KJ/(KG)(K)   17.0446  17.0623  17.0799  17.0974  17.1148  17.1323  17.1496  17.1669
 CONDUCTIVITY      8.1950   8.2346   8.2744   8.3144   8.3545   8.3948   8.4353   8.4759
 PRANDTL NUMBER    0.7035   0.7035   0.7035   0.7034   0.7034   0.7034   0.7034   0.7033

 MOLE FRACTIONS

 *H               0.00392  0.00419  0.00448  0.00478  0.00510  0.00543  0.00579  0.00616
 *H2              0.99608  0.99581  0.99552  0.99522  0.99490  0.99457  0.99421  0.99384

  * THERMODYNAMIC PROPERTIES FITTED TO 20000.K

 NOTE. WEIGHT FRACTION OF FUEL IN TOTAL FUELS AND OF OXIDANT IN TOTAL OXIDANTS









               THERMODYNAMIC EQUILIBRIUM PROPERTIES AT ASSIGNED

                           TEMPERATURE AND PRESSURE

 CASE =                

             REACTANT                    WT FRACTION      ENERGY      TEMP
                                          (SEE NOTE)     KJ/KG-MOL      K  
             H2                           1.0000000         0.000      0.000

 O/F=    0.00000  %FUEL=100.000000  R,EQ.RATIO= 0.000000  PHI,EQ.RATIO= 0.000000

 THERMODYNAMIC PROPERTIES

 P, BAR           0.25000  0.25000  0.25000  0.25000  0.25000  0.25000  0.25000  0.25000
 T, K             1950.00  1960.00  1970.00  1980.00  1990.00  2000.00  2010.00  2020.00
 RHO, KG/CU M    3.1048-3 3.0887-3 3.0728-3 3.0569-3 3.0413-3 3.0257-3 3.0103-3 2.9951-3
 H, KJ/KG         25676.8  25865.2  26055.0  26246.2  26438.9  26633.2  26829.1  27026.8
 U, KJ/KG         17624.8  17771.2  17918.9  18068.1  18218.6  18370.7  18524.4  18679.7
 G, KJ/KG       -167173.1-168162.5-169153.0-170144.3-171136.7-172130.0-173124.3-174119.6
 S, KJ/(KG)(K)    98.8974  98.9937  99.0903  99.1871  99.2842  99.3816  99.4793  99.5774

 M, (1/n)           2.014    2.013    2.013    2.013    2.013    2.013    2.012    2.012
 (dLV/dLP)t      -1.00057 -1.00062 -1.00066 -1.00071 -1.00076 -1.00081 -1.00087 -1.00093
 (dLV/dLT)p        1.0160   1.0171   1.0183   1.0195   1.0208   1.0222   1.0236   1.0251
 Cp, KJ/(KG)(K)   18.7710  18.9065  19.0479  19.1955  19.3496  19.5104  19.6782  19.8531
 GAMMAs            1.2929   1.2909   1.2889   1.2869   1.2849   1.2828   1.2806   1.2785
 SON VEL,M/SEC     3226.5   3232.4   3238.3   3244.2   3249.9   3255.6   3261.2   3266.7

 TRANSPORT PROPERTIES (GASES ONLY)
   CONDUCTIVITY IN UNITS OF MILLIWATTS/(CM)(K)

 VISC,MILLIPOISE  0.32933  0.33059  0.33185  0.33312  0.33439  0.33566  0.33693  0.33820

  WITH EQUILIBRIUM REACTIONS

 Cp, KJ/(KG)(K)   18.7710  18.9065  19.0479  19.1955  19.3496  19.5104  19.6782  19.8531
 CONDUCTIVITY      9.5695   9.7201   9.8771  10.0409  10.2115  10.3895  10.5750  10.7684
 PRANDTL NUMBER    0.6460   0.6430   0.6400   0.6368   0.6336   0.6303   0.6270   0.6235

  WITH FROZEN REACTIONS

 Cp, KJ/(KG)(K)   16.9191  16.9372  16.9552  16.9732  16.9910  17.0089  17.0266  17.0443
 CONDUCTIVITY      7.9199   7.9587   7.9975   8.0365   8.0756   8.1148   8.1541   8.1935
 PRANDTL NUMBER    0.7035   0.7035   0.7035   0.7036   0.7036   0.7035   0.7035   0.7035

 MOLE FRACTIONS

 *H               0.00229  0.00246  0.00264  0.00283  0.00304  0.00325  0.00348  0.00372
 *H2              0.99771  0.99754  0.99736  0.99717  0.99696  0.99675  0.99652  0.99628

  * THERMODYNAMIC PROPERTIES FITTED TO 20000.K

 NOTE. WEIGHT FRACTION OF FUEL IN TOTAL FUELS AND OF OXIDANT IN TOTAL OXIDANTS









               THERMODYNAMIC EQUILIBRIUM PROPERTIES AT ASSIGNED

                           TEMPERATURE AND PRESSURE

 CASE =                

             REACTANT                    WT FRACTION      ENERGY      TEMP
                                          (SEE NOTE)     KJ/KG-MOL      K  
             H2                           1.0000000         0.000      0.000

 O/F=    0.00000  %FUEL=100.000000  R,EQ.RATIO= 0.000000  PHI,EQ.RATIO= 0.000000

 THERMODYNAMIC PROPERTIES

 P, BAR           0.25000  0.25000  0.25000  0.25000  0.25000  0.25000  0.25000  0.28000
 T, K             2030.00  2040.00  2050.00  2060.00  2070.00  2080.00  2090.00  1950.00
 RHO, KG/CU M    2.9799-3 2.9649-3 2.9500-3 2.9353-3 2.9206-3 2.9061-3 2.8917-3 3.4776-3
 H, KJ/KG         27226.2  27427.5  27630.8  27836.0  28043.4  28253.0  28464.8  25662.6
 U, KJ/KG         18836.8  18995.6  19156.3  19318.9  19483.6  19650.4  19819.3  17611.1
 G, KJ/KG       -175115.9-176113.1-177111.4-178110.6-179110.9-180112.1-181114.4-166260.6
 S, KJ/(KG)(K)    99.6759  99.7748  99.8742  99.9741 100.0745 100.1755 100.2771  98.4222

 M, (1/n)           2.012    2.012    2.011    2.011    2.011    2.010    2.010    2.014
 (dLV/dLP)t      -1.00099 -1.00106 -1.00113 -1.00121 -1.00129 -1.00137 -1.00146 -1.00054
 (dLV/dLT)p        1.0267   1.0284   1.0302   1.0321   1.0340   1.0361   1.0382   1.0152
 Cp, KJ/(KG)(K)   20.0356  20.2257  20.4239  20.6303  20.8454  21.0692  21.3022  18.6688
 GAMMAs            1.2763   1.2740   1.2718   1.2695   1.2671   1.2648   1.2624   1.2943
 SON VEL,M/SEC     3272.2   3277.6   3282.9   3288.2   3293.4   3298.5   3303.6   3228.2

 TRANSPORT PROPERTIES (GASES ONLY)
   CONDUCTIVITY IN UNITS OF MILLIWATTS/(CM)(K)

 VISC,MILLIPOISE  0.33948  0.34076  0.34204  0.34333  0.34461  0.34590  0.34720  0.32930

  WITH EQUILIBRIUM REACTIONS

 Cp, KJ/(KG)(K)   20.0356  20.2257  20.4239  20.6303  20.8454  21.0692  21.3022  18.6688
 CONDUCTIVITY     10.9700  11.1801  11.3990  11.6272  11.8649  12.1125  12.3704   9.4778
 PRANDTL NUMBER    0.6200   0.6165   0.6128   0.6092   0.6054   0.6017   0.5979   0.6486

  WITH FROZEN REACTIONS

 Cp, KJ/(KG)(K)   17.0619  17.0795  17.0970  17.1144  17.1318  17.1491  17.1663  16.9189
 CONDUCTIVITY      8.2331   8.2728   8.3126   8.3526   8.3928   8.4331   8.4735   7.9190
 PRANDTL NUMBER    0.7035   0.7035   0.7035   0.7035   0.7034   0.7034   0.7034   0.7036

 MOLE FRACTIONS

 *H               0.00398  0.00425  0.00453  0.00484  0.00516  0.00549  0.00585  0.00217
 *H2              0.99602  0.99575  0.99547  0.99516  0.99484  0.99451  0.99415  0.99783

  * THERMODYNAMIC PROPERTIES FITTED TO 20000.K

 NOTE. WEIGHT FRACTION OF FUEL IN TOTAL FUELS AND OF OXIDANT IN TOTAL OXIDANTS









               THERMODYNAMIC EQUILIBRIUM PROPERTIES AT ASSIGNED

                           TEMPERATURE AND PRESSURE

 CASE =                

             REACTANT                    WT FRACTION      ENERGY      TEMP
                                          (SEE NOTE)     KJ/KG-MOL      K  
             H2                           1.0000000         0.000      0.000

 O/F=    0.00000  %FUEL=100.000000  R,EQ.RATIO= 0.000000  PHI,EQ.RATIO= 0.000000

 THERMODYNAMIC PROPERTIES

 P, BAR           0.28000  0.28000  0.28000  0.28000  0.28000  0.28000  0.28000  0.28000
 T, K             1960.00  1970.00  1980.00  1990.00  2000.00  2010.00  2020.00  2030.00
 RHO, KG/CU M    3.4596-3 3.4417-3 3.4240-3 3.4065-3 3.3891-3 3.3719-3 3.3548-3 3.3379-3
 H, KJ/KG         25849.9  26038.6  26228.6  26420.0  26613.0  26807.5  27003.6  27201.5
 U, KJ/KG         17756.5  17903.1  18051.1  18200.5  18351.3  18503.6  18657.5  18813.0
 G, KJ/KG       -167245.3-168230.9-169217.6-170205.1-171193.7-172183.2-173173.7-174165.2
 S, KJ/(KG)(K)    98.5180  98.6140  98.7102  98.8066  98.9033  99.0004  99.0977  99.1954

 M, (1/n)           2.014    2.013    2.013    2.013    2.013    2.013    2.012    2.012
 (dLV/dLP)t      -1.00058 -1.00062 -1.00067 -1.00072 -1.00077 -1.00082 -1.00088 -1.00094
 (dLV/dLT)p        1.0162   1.0173   1.0185   1.0197   1.0210   1.0223   1.0238   1.0253
 Cp, KJ/(KG)(K)   18.7977  18.9323  19.0728  19.2194  19.3723  19.5318  19.6980  19.8714
 GAMMAs            1.2924   1.2905   1.2886   1.2866   1.2845   1.2825   1.2804   1.2782
 SON VEL,M/SEC     3234.2   3240.2   3246.1   3251.9   3257.7   3263.3   3269.0   3274.5

 TRANSPORT PROPERTIES (GASES ONLY)
   CONDUCTIVITY IN UNITS OF MILLIWATTS/(CM)(K)

 VISC,MILLIPOISE  0.33056  0.33183  0.33309  0.33436  0.33562  0.33689  0.33816  0.33944

  WITH EQUILIBRIUM REACTIONS

 Cp, KJ/(KG)(K)   18.7977  18.9323  19.0728  19.2194  19.3723  19.5318  19.6980  19.8714
 CONDUCTIVITY      9.6222   9.7727   9.9295  10.0928  10.2631  10.4405  10.6253  10.8179
 PRANDTL NUMBER    0.6458   0.6428   0.6398   0.6367   0.6335   0.6303   0.6269   0.6235

  WITH FROZEN REACTIONS

 Cp, KJ/(KG)(K)   16.9369  16.9549  16.9729  16.9907  17.0085  17.0263  17.0439  17.0615
 CONDUCTIVITY      7.9577   7.9965   8.0354   8.0744   8.1135   8.1527   8.1920   8.2315
 PRANDTL NUMBER    0.7036   0.7036   0.7036   0.7036   0.7036   0.7036   0.7036   0.7036

 MOLE FRACTIONS

 *H               0.00233  0.00250  0.00268  0.00287  0.00307  0.00329  0.00352  0.00376
 *H2              0.99767  0.99750  0.99732  0.99713  0.99693  0.99671  0.99648  0.99624

  * THERMODYNAMIC PROPERTIES FITTED TO 20000.K

 NOTE. WEIGHT FRACTION OF FUEL IN TOTAL FUELS AND OF OXIDANT IN TOTAL OXIDANTS









               THERMODYNAMIC EQUILIBRIUM PROPERTIES AT ASSIGNED

                           TEMPERATURE AND PRESSURE

 CASE =                

             REACTANT                    WT FRACTION      ENERGY      TEMP
                                          (SEE NOTE)     KJ/KG-MOL      K  
             H2                           1.0000000         0.000      0.000

 O/F=    0.00000  %FUEL=100.000000  R,EQ.RATIO= 0.000000  PHI,EQ.RATIO= 0.000000

 THERMODYNAMIC PROPERTIES

 P, BAR           0.28000  0.28000  0.28000  0.28000  0.28000  0.28000  0.31000  0.31000
 T, K             2040.00  2050.00  2060.00  2070.00  2080.00  2090.00  1950.00  1960.00
 RHO, KG/CU M    3.3211-3 3.3045-3 3.2879-3 3.2716-3 3.2553-3 3.2392-3 3.8504-3 3.8305-3
 H, KJ/KG         27401.1  27602.6  27805.9  28011.3  28218.8  28428.4  25650.5  25836.9
 U, KJ/KG         18970.2  19129.2  19290.0  19452.7  19617.5  19784.3  17599.4  17743.9
 G, KJ/KG       -175157.6-176151.0-177145.5-178140.9-179137.3-180134.7-165441.1-166421.5
 S, KJ/(KG)(K)    99.2935  99.3920  99.4910  99.5904  99.6904  99.7909  97.9957  98.0910

 M, (1/n)           2.012    2.012    2.011    2.011    2.011    2.010    2.014    2.014
 (dLV/dLP)t      -1.00100 -1.00107 -1.00114 -1.00122 -1.00130 -1.00138 -1.00051 -1.00055
 (dLV/dLT)p        1.0269   1.0285   1.0303   1.0322   1.0341   1.0361   1.0144   1.0154
 Cp, KJ/(KG)(K)   20.0520  20.2402  20.4362  20.6403  20.8527  21.0738  18.5817  18.7052
 GAMMAs            1.2760   1.2738   1.2716   1.2693   1.2670   1.2647   1.2955   1.2937
 SON VEL,M/SEC     3280.0   3285.4   3290.7   3296.0   3301.2   3306.4   3229.6   3235.8

 TRANSPORT PROPERTIES (GASES ONLY)
   CONDUCTIVITY IN UNITS OF MILLIWATTS/(CM)(K)

 VISC,MILLIPOISE  0.34071  0.34199  0.34328  0.34456  0.34585  0.34714  0.32929  0.33054

  WITH EQUILIBRIUM REACTIONS

 Cp, KJ/(KG)(K)   20.0520  20.2402  20.4362  20.6403  20.8527  21.0738  18.5817  18.7052
 CONDUCTIVITY     11.0185  11.2275  11.4452  11.6720  11.9081  12.1540   9.3998   9.5389
 PRANDTL NUMBER    0.6200   0.6165   0.6129   0.6093   0.6056   0.6019   0.6509   0.6482

  WITH FROZEN REACTIONS

 Cp, KJ/(KG)(K)   17.0790  17.0965  17.1139  17.1313  17.1486  17.1658  16.9187  16.9367
 CONDUCTIVITY      8.2710   8.3108   8.3506   8.3906   8.4308   8.4711   7.9183   7.9569
 PRANDTL NUMBER    0.7035   0.7035   0.7035   0.7035   0.7035   0.7034   0.7036   0.7036

 MOLE FRACTIONS

 *H               0.00401  0.00429  0.00457  0.00487  0.00519  0.00553  0.00206  0.00221
 *H2              0.99599  0.99571  0.99543  0.99513  0.99481  0.99447  0.99794  0.99779

  * THERMODYNAMIC PROPERTIES FITTED TO 20000.K

 NOTE. WEIGHT FRACTION OF FUEL IN TOTAL FUELS AND OF OXIDANT IN TOTAL OXIDANTS









               THERMODYNAMIC EQUILIBRIUM PROPERTIES AT ASSIGNED

                           TEMPERATURE AND PRESSURE

 CASE =                

             REACTANT                    WT FRACTION      ENERGY      TEMP
                                          (SEE NOTE)     KJ/KG-MOL      K  
             H2                           1.0000000         0.000      0.000

 O/F=    0.00000  %FUEL=100.000000  R,EQ.RATIO= 0.000000  PHI,EQ.RATIO= 0.000000

 THERMODYNAMIC PROPERTIES

 P, BAR           0.31000  0.31000  0.31000  0.31000  0.31000  0.31000  0.31000  0.31000
 T, K             1970.00  1980.00  1990.00  2000.00  2010.00  2020.00  2030.00  2040.00
 RHO, KG/CU M    3.8107-3 3.7912-3 3.7718-3 3.7525-3 3.7335-3 3.7146-3 3.6959-3 3.6773-3
 H, KJ/KG         26024.6  26213.6  26404.0  26595.8  26789.1  26984.0  27180.4  27378.6
 U, KJ/KG         17889.7  18036.7  18185.0  18334.7  18485.9  18638.5  18792.7  18948.5
 G, KJ/KG       -167402.9-168385.3-169368.6-170352.8-171338.1-172324.2-173311.4-174299.5
 S, KJ/(KG)(K)    98.1866  98.2823  98.3782  98.4743  98.5707  98.6674  98.7645  98.8618

 M, (1/n)           2.013    2.013    2.013    2.013    2.013    2.013    2.012    2.012
 (dLV/dLP)t      -1.00059 -1.00064 -1.00068 -1.00073 -1.00078 -1.00084 -1.00089 -1.00095
 (dLV/dLT)p        1.0164   1.0175   1.0187   1.0199   1.0212   1.0226   1.0240   1.0255
 Cp, KJ/(KG)(K)   18.8340  18.9684  19.1086  19.2547  19.4072  19.5660  19.7316  19.9041
 GAMMAs            1.2919   1.2900   1.2880   1.2861   1.2840   1.2820   1.2799   1.2778
 SON VEL,M/SEC     3241.8   3247.8   3253.7   3259.5   3265.2   3270.9   3276.5   3282.1

 TRANSPORT PROPERTIES (GASES ONLY)
   CONDUCTIVITY IN UNITS OF MILLIWATTS/(CM)(K)

 VISC,MILLIPOISE  0.33180  0.33307  0.33433  0.33560  0.33686  0.33813  0.33940  0.34068

  WITH EQUILIBRIUM REACTIONS

 Cp, KJ/(KG)(K)   18.8340  18.9684  19.1086  19.2547  19.4072  19.5660  19.7316  19.9041
 CONDUCTIVITY      9.6838   9.8347   9.9918  10.1555  10.3259  10.5035  10.6884  10.8810
 PRANDTL NUMBER    0.6453   0.6424   0.6394   0.6363   0.6331   0.6299   0.6266   0.6232

  WITH FROZEN REACTIONS

 Cp, KJ/(KG)(K)   16.9547  16.9726  16.9905  17.0083  17.0260  17.0436  17.0612  17.0787
 CONDUCTIVITY      7.9956   8.0344   8.0733   8.1124   8.1515   8.1907   8.2301   8.2696
 PRANDTL NUMBER    0.7036   0.7036   0.7036   0.7036   0.7036   0.7036   0.7036   0.7036

 MOLE FRACTIONS

 *H               0.00237  0.00255  0.00273  0.00292  0.00313  0.00334  0.00357  0.00382
 *H2              0.99763  0.99745  0.99727  0.99708  0.99687  0.99666  0.99643  0.99618

  * THERMODYNAMIC PROPERTIES FITTED TO 20000.K

 NOTE. WEIGHT FRACTION OF FUEL IN TOTAL FUELS AND OF OXIDANT IN TOTAL OXIDANTS









               THERMODYNAMIC EQUILIBRIUM PROPERTIES AT ASSIGNED

                           TEMPERATURE AND PRESSURE

 CASE =                

             REACTANT                    WT FRACTION      ENERGY      TEMP
                                          (SEE NOTE)     KJ/KG-MOL      K  
             H2                           1.0000000         0.000      0.000

 O/F=    0.00000  %FUEL=100.000000  R,EQ.RATIO= 0.000000  PHI,EQ.RATIO= 0.000000

 THERMODYNAMIC PROPERTIES

 P, BAR           0.31000  0.31000  0.31000  0.31000  0.31000  0.35000  0.35000  0.35000
 T, K             2050.00  2060.00  2070.00  2080.00  2090.00  1950.00  1960.00  1970.00
 RHO, KG/CU M    3.6589-3 3.6406-3 3.6225-3 3.6046-3 3.5868-3 4.3475-3 4.3250-3 4.3027-3
 H, KJ/KG         27578.6  27780.3  27984.0  28189.7  28397.4  25636.8  25822.2  26008.9
 U, KJ/KG         19106.1  19265.3  19426.5  19589.5  19754.5  17586.2  17729.8  17874.5
 G, KJ/KG       -175288.6-176278.7-177269.8-178261.9-179254.9-164464.1-165439.4-166415.7
 S, KJ/(KG)(K)    98.9596  99.0578  99.1564  99.2555  99.3552  97.4876  97.5825  97.6774

 M, (1/n)           2.012    2.012    2.011    2.011    2.011    2.014    2.014    2.014
 (dLV/dLP)t      -1.00102 -1.00109 -1.00116 -1.00123 -1.00131 -1.00048 -1.00052 -1.00056
 (dLV/dLT)p        1.0271   1.0288   1.0306   1.0324   1.0343   1.0136   1.0145   1.0155
 Cp, KJ/(KG)(K)   20.0838  20.2709  20.4657  20.6685  20.8794  18.4836  18.6008  18.7231
 GAMMAs            1.2756   1.2735   1.2713   1.2690   1.2668   1.2970   1.2952   1.2934
 SON VEL,M/SEC     3287.5   3293.0   3298.3   3303.6   3308.9   3231.3   3237.5   3243.6

 TRANSPORT PROPERTIES (GASES ONLY)
   CONDUCTIVITY IN UNITS OF MILLIWATTS/(CM)(K)

 VISC,MILLIPOISE  0.34195  0.34323  0.34452  0.34580  0.34709  0.32926  0.33052  0.33178

  WITH EQUILIBRIUM REACTIONS

 Cp, KJ/(KG)(K)   20.0838  20.2709  20.4657  20.6685  20.8794  18.4836  18.6008  18.7231
 CONDUCTIVITY     11.0815  11.2903  11.5078  11.7341  11.9697   9.3118   9.4449   9.5835
 PRANDTL NUMBER    0.6197   0.6162   0.6127   0.6091   0.6054   0.6536   0.6509   0.6482

  WITH FROZEN REACTIONS

 Cp, KJ/(KG)(K)   17.0961  17.1135  17.1308  17.1481  17.1653  16.9184  16.9365  16.9545
 CONDUCTIVITY      8.3092   8.3490   8.3889   8.4289   8.4691   7.9174   7.9559   7.9946
 PRANDTL NUMBER    0.7036   0.7036   0.7035   0.7035   0.7035   0.7036   0.7036   0.7036

 MOLE FRACTIONS

 *H               0.00407  0.00434  0.00463  0.00493  0.00525  0.00194  0.00208  0.00223
 *H2              0.99593  0.99566  0.99537  0.99507  0.99475  0.99806  0.99792  0.99777

  * THERMODYNAMIC PROPERTIES FITTED TO 20000.K

 NOTE. WEIGHT FRACTION OF FUEL IN TOTAL FUELS AND OF OXIDANT IN TOTAL OXIDANTS









               THERMODYNAMIC EQUILIBRIUM PROPERTIES AT ASSIGNED

                           TEMPERATURE AND PRESSURE

 CASE =                

             REACTANT                    WT FRACTION      ENERGY      TEMP
                                          (SEE NOTE)     KJ/KG-MOL      K  
             H2                           1.0000000         0.000      0.000

 O/F=    0.00000  %FUEL=100.000000  R,EQ.RATIO= 0.000000  PHI,EQ.RATIO= 0.000000

 THERMODYNAMIC PROPERTIES

 P, BAR           0.35000  0.35000  0.35000  0.35000  0.35000  0.35000  0.35000  0.35000
 T, K             1980.00  1990.00  2000.00  2010.00  2020.00  2030.00  2040.00  2050.00
 RHO, KG/CU M    4.2807-3 4.2588-3 4.2371-3 4.2156-3 4.1943-3 4.1732-3 4.1523-3 4.1315-3
 H, KJ/KG         26196.7  26385.9  26576.4  26768.4  26961.8  27156.7  27353.3  27551.5
 U, KJ/KG         18020.4  18167.6  18316.0  18465.9  18617.1  18769.9  18924.1  19080.0
 G, KJ/KG       -167392.9-168371.1-169350.3-170330.4-171311.5-172293.5-173276.5-174260.5
 S, KJ/(KG)(K)    97.7726  97.8679  97.9634  98.0591  98.1551  98.2513  98.3479  98.4449

 M, (1/n)           2.013    2.013    2.013    2.013    2.013    2.012    2.012    2.012
 (dLV/dLP)t      -1.00060 -1.00064 -1.00069 -1.00074 -1.00079 -1.00084 -1.00090 -1.00096
 (dLV/dLT)p        1.0165   1.0176   1.0188   1.0200   1.0213   1.0226   1.0240   1.0255
 Cp, KJ/(KG)(K)   18.8506  18.9836  19.1222  19.2666  19.4172  19.5740  19.7374  19.9075
 GAMMAs            1.2916   1.2897   1.2878   1.2859   1.2839   1.2819   1.2798   1.2777
 SON VEL,M/SEC     3249.7   3255.6   3261.5   3267.4   3273.1   3278.8   3284.5   3290.0

 TRANSPORT PROPERTIES (GASES ONLY)
   CONDUCTIVITY IN UNITS OF MILLIWATTS/(CM)(K)

 VISC,MILLIPOISE  0.33304  0.33430  0.33557  0.33683  0.33810  0.33937  0.34064  0.34191

  WITH EQUILIBRIUM REACTIONS

 Cp, KJ/(KG)(K)   18.8506  18.9836  19.1222  19.2666  19.4172  19.5740  19.7374  19.9075
 CONDUCTIVITY      9.7277   9.8778  10.0341  10.1968  10.3661  10.5424  10.7259  10.9169
 PRANDTL NUMBER    0.6454   0.6425   0.6395   0.6364   0.6333   0.6301   0.6268   0.6235

  WITH FROZEN REACTIONS

 Cp, KJ/(KG)(K)   16.9724  16.9902  17.0079  17.0256  17.0432  17.0608  17.0783  17.0957
 CONDUCTIVITY      8.0333   8.0722   8.1111   8.1501   8.1893   8.2286   8.2679   8.3074
 PRANDTL NUMBER    0.7036   0.7036   0.7036   0.7036   0.7036   0.7036   0.7036   0.7036

 MOLE FRACTIONS

 *H               0.00240  0.00257  0.00275  0.00294  0.00315  0.00336  0.00359  0.00383
 *H2              0.99760  0.99743  0.99725  0.99706  0.99685  0.99664  0.99641  0.99617

  * THERMODYNAMIC PROPERTIES FITTED TO 20000.K

 NOTE. WEIGHT FRACTION OF FUEL IN TOTAL FUELS AND OF OXIDANT IN TOTAL OXIDANTS









               THERMODYNAMIC EQUILIBRIUM PROPERTIES AT ASSIGNED

                           TEMPERATURE AND PRESSURE

 CASE =                

             REACTANT                    WT FRACTION      ENERGY      TEMP
                                          (SEE NOTE)     KJ/KG-MOL      K  
             H2                           1.0000000         0.000      0.000

 O/F=    0.00000  %FUEL=100.000000  R,EQ.RATIO= 0.000000  PHI,EQ.RATIO= 0.000000

 THERMODYNAMIC PROPERTIES

 P, BAR           0.35000  0.35000  0.35000  0.35000  0.39000  0.39000  0.39000  0.39000
 T, K             2060.00  2070.00  2080.00  2090.00  1950.00  1960.00  1970.00  1980.00
 RHO, KG/CU M    4.1109-3 4.0905-3 4.0703-3 4.0502-3 4.8446-3 4.8196-3 4.7948-3 4.7702-3
 H, KJ/KG         27751.4  27953.2  28156.8  28362.4  25625.3  25809.9  25995.6  26182.5
 U, KJ/KG         19237.5  19396.8  19557.9  19720.9  17575.2  17717.9  17861.7  18006.7
 G, KJ/KG       -175245.4-176231.3-177218.2-178206.1-163592.9-164563.7-165535.5-166508.2
 S, KJ/(KG)(K)    98.5422  98.6399  98.7380  98.8366  97.0350  97.1294  97.2239  97.3185

 M, (1/n)           2.012    2.011    2.011    2.011    2.014    2.014    2.014    2.014
 (dLV/dLP)t      -1.00102 -1.00109 -1.00116 -1.00124 -1.00046 -1.00049 -1.00053 -1.00057
 (dLV/dLT)p        1.0271   1.0288   1.0305   1.0323   1.0128   1.0137   1.0147   1.0156
 Cp, KJ/(KG)(K)   20.0846  20.2689  20.4607  20.6602  18.4010  18.5130  18.6297  18.7515
 GAMMAs            1.2756   1.2735   1.2713   1.2691   1.2982   1.2965   1.2947   1.2930
 SON VEL,M/SEC     3295.5   3301.0   3306.3   3311.7   3232.7   3239.0   3245.2   3251.3

 TRANSPORT PROPERTIES (GASES ONLY)
   CONDUCTIVITY IN UNITS OF MILLIWATTS/(CM)(K)

 VISC,MILLIPOISE  0.34319  0.34446  0.34575  0.34703  0.32925  0.33050  0.33176  0.33302

  WITH EQUILIBRIUM REACTIONS

 Cp, KJ/(KG)(K)   20.0846  20.2689  20.4607  20.6602  18.4010  18.5130  18.6297  18.7515
 CONDUCTIVITY     11.1156  11.3225  11.5378  11.7618   9.2377   9.3658   9.4990   9.6377
 PRANDTL NUMBER    0.6201   0.6166   0.6131   0.6096   0.6558   0.6533   0.6507   0.6479

  WITH FROZEN REACTIONS

 Cp, KJ/(KG)(K)   17.1131  17.1304  17.1476  17.1648  16.9183  16.9363  16.9542  16.9721
 CONDUCTIVITY      8.3471   8.3868   8.4267   8.4668   7.9167   7.9552   7.9937   8.0324
 PRANDTL NUMBER    0.7036   0.7036   0.7036   0.7035   0.7036   0.7036   0.7036   0.7037

 MOLE FRACTIONS

 *H               0.00409  0.00436  0.00464  0.00494  0.00184  0.00197  0.00212  0.00227
 *H2              0.99591  0.99564  0.99536  0.99506  0.99816  0.99803  0.99788  0.99773

  * THERMODYNAMIC PROPERTIES FITTED TO 20000.K

 NOTE. WEIGHT FRACTION OF FUEL IN TOTAL FUELS AND OF OXIDANT IN TOTAL OXIDANTS









               THERMODYNAMIC EQUILIBRIUM PROPERTIES AT ASSIGNED

                           TEMPERATURE AND PRESSURE

 CASE =                

             REACTANT                    WT FRACTION      ENERGY      TEMP
                                          (SEE NOTE)     KJ/KG-MOL      K  
             H2                           1.0000000         0.000      0.000

 O/F=    0.00000  %FUEL=100.000000  R,EQ.RATIO= 0.000000  PHI,EQ.RATIO= 0.000000

 THERMODYNAMIC PROPERTIES

 P, BAR           0.39000  0.39000  0.39000  0.39000  0.39000  0.39000  0.39000  0.39000
 T, K             1990.00  2000.00  2010.00  2020.00  2030.00  2040.00  2050.00  2060.00
 RHO, KG/CU M    4.7458-3 4.7217-3 4.6978-3 4.6741-3 4.6505-3 4.6272-3 4.6041-3 4.5812-3
 H, KJ/KG         26370.7  26560.1  26750.9  26943.1  27136.7  27331.9  27528.7  27727.1
 U, KJ/KG         18152.9  18300.3  18449.1  18599.1  18750.6  18903.6  19058.1  19214.2
 G, KJ/KG       -167481.8-168456.5-169432.0-170408.5-171386.0-172364.4-173343.8-174324.1
 S, KJ/(KG)(K)    97.4133  97.5083  97.6034  97.6988  97.7944  97.8904  97.9866  98.0831

 M, (1/n)           2.013    2.013    2.013    2.013    2.013    2.012    2.012    2.012
 (dLV/dLP)t      -1.00061 -1.00065 -1.00070 -1.00075 -1.00080 -1.00085 -1.00091 -1.00097
 (dLV/dLT)p        1.0167   1.0178   1.0189   1.0201   1.0214   1.0228   1.0242   1.0257
 Cp, KJ/(KG)(K)   18.8783  19.0106  19.1483  19.2918  19.4413  19.5970  19.7590  19.9277
 GAMMAs            1.2911   1.2893   1.2874   1.2855   1.2835   1.2815   1.2795   1.2775
 SON VEL,M/SEC     3257.3   3263.3   3269.2   3275.1   3280.8   3286.5   3292.2   3297.7

 TRANSPORT PROPERTIES (GASES ONLY)
   CONDUCTIVITY IN UNITS OF MILLIWATTS/(CM)(K)

 VISC,MILLIPOISE  0.33428  0.33554  0.33680  0.33807  0.33933  0.34060  0.34187  0.34315

  WITH EQUILIBRIUM REACTIONS

 Cp, KJ/(KG)(K)   18.8783  19.0106  19.1483  19.2918  19.4413  19.5970  19.7590  19.9277
 CONDUCTIVITY      9.7819   9.9319  10.0880  10.2504  10.4194  10.5952  10.7782  10.9685
 PRANDTL NUMBER    0.6451   0.6423   0.6393   0.6363   0.6332   0.6300   0.6267   0.6234

  WITH FROZEN REACTIONS

 Cp, KJ/(KG)(K)   16.9899  17.0077  17.0253  17.0430  17.0605  17.0780  17.0954  17.1127
 CONDUCTIVITY      8.0712   8.1101   8.1490   8.1881   8.2273   8.2665   8.3059   8.3455
 PRANDTL NUMBER    0.7037   0.7037   0.7037   0.7037   0.7037   0.7037   0.7036   0.7036

 MOLE FRACTIONS

 *H               0.00243  0.00260  0.00279  0.00298  0.00319  0.00340  0.00363  0.00387
 *H2              0.99757  0.99740  0.99721  0.99702  0.99681  0.99660  0.99637  0.99613

  * THERMODYNAMIC PROPERTIES FITTED TO 20000.K

 NOTE. WEIGHT FRACTION OF FUEL IN TOTAL FUELS AND OF OXIDANT IN TOTAL OXIDANTS









               THERMODYNAMIC EQUILIBRIUM PROPERTIES AT ASSIGNED

                           TEMPERATURE AND PRESSURE

 CASE =                

             REACTANT                    WT FRACTION      ENERGY      TEMP
                                          (SEE NOTE)     KJ/KG-MOL      K  
             H2                           1.0000000         0.000      0.000

 O/F=    0.00000  %FUEL=100.000000  R,EQ.RATIO= 0.000000  PHI,EQ.RATIO= 0.000000

 THERMODYNAMIC PROPERTIES

 P, BAR           0.39000  0.39000  0.39000  0.44000  0.44000  0.44000  0.44000  0.44000
 T, K             2070.00  2080.00  2090.00  1950.00  1960.00  1970.00  1980.00  1990.00
 RHO, KG/CU M    4.5585-3 4.5360-3 4.5136-3 5.4660-3 5.4378-3 5.4098-3 5.3821-3 5.3546-3
 H, KJ/KG         27927.3  28129.2  28333.0  25613.2  25796.9  25981.7  26167.5  26354.6
 U, KJ/KG         19371.9  19531.3  19692.6  17563.5  17705.3  17848.3  17992.3  18137.4
 G, KJ/KG       -175305.5-176287.7-177271.0-162621.9-163587.6-164554.3-165522.0-166490.6
 S, KJ/(KG)(K)    98.1801  98.2774  98.3751  96.5308  96.6247  96.7188  96.8129  96.9071

 M, (1/n)           2.012    2.011    2.011    2.014    2.014    2.014    2.014    2.014
 (dLV/dLP)t      -1.00103 -1.00110 -1.00117 -1.00043 -1.00046 -1.00050 -1.00053 -1.00057
 (dLV/dLT)p        1.0273   1.0289   1.0306   1.0121   1.0129   1.0138   1.0147   1.0157
 Cp, KJ/(KG)(K)   20.1032  20.2858  20.4757  18.3140  18.4205  18.5314  18.6471  18.7675
 GAMMAs            1.2754   1.2733   1.2711   1.2995   1.2978   1.2961   1.2944   1.2927
 SON VEL,M/SEC     3303.2   3308.7   3314.1   3234.3   3240.6   3246.9   3253.0   3259.2

 TRANSPORT PROPERTIES (GASES ONLY)
   CONDUCTIVITY IN UNITS OF MILLIWATTS/(CM)(K)

 VISC,MILLIPOISE  0.34442  0.34570  0.34698  0.32923  0.33048  0.33174  0.33299  0.33425

  WITH EQUILIBRIUM REACTIONS

 Cp, KJ/(KG)(K)   20.1032  20.2858  20.4757  18.3140  18.4205  18.5314  18.6471  18.7675
 CONDUCTIVITY     11.1665  11.3725  11.5867   9.1596   9.2825   9.4101   9.5428   9.6808
 PRANDTL NUMBER    0.6201   0.6166   0.6132   0.6583   0.6558   0.6533   0.6507   0.6480

  WITH FROZEN REACTIONS

 Cp, KJ/(KG)(K)   17.1300  17.1472  17.1643  16.9181  16.9361  16.9540  16.9719  16.9897
 CONDUCTIVITY      8.3851   8.4249   8.4648   7.9159   7.9543   7.9929   8.0315   8.0702
 PRANDTL NUMBER    0.7036   0.7036   0.7036   0.7036   0.7036   0.7037   0.7037   0.7037

 MOLE FRACTIONS

 *H               0.00413  0.00440  0.00468  0.00173  0.00186  0.00199  0.00214  0.00229
 *H2              0.99587  0.99560  0.99532  0.99827  0.99814  0.99801  0.99786  0.99771

  * THERMODYNAMIC PROPERTIES FITTED TO 20000.K

 NOTE. WEIGHT FRACTION OF FUEL IN TOTAL FUELS AND OF OXIDANT IN TOTAL OXIDANTS









               THERMODYNAMIC EQUILIBRIUM PROPERTIES AT ASSIGNED

                           TEMPERATURE AND PRESSURE

 CASE =                

             REACTANT                    WT FRACTION      ENERGY      TEMP
                                          (SEE NOTE)     KJ/KG-MOL      K  
             H2                           1.0000000         0.000      0.000

 O/F=    0.00000  %FUEL=100.000000  R,EQ.RATIO= 0.000000  PHI,EQ.RATIO= 0.000000

 THERMODYNAMIC PROPERTIES

 P, BAR           0.44000  0.44000  0.44000  0.44000  0.44000  0.44000  0.44000  0.44000
 T, K             2000.00  2010.00  2020.00  2030.00  2040.00  2050.00  2060.00  2070.00
 RHO, KG/CU M    5.3274-3 5.3005-3 5.2737-3 5.2473-3 5.2210-3 5.1950-3 5.1692-3 5.1436-3
 H, KJ/KG         26542.9  26732.5  26923.4  27115.7  27309.5  27504.7  27701.5  27900.0
 U, KJ/KG         18283.8  18431.3  18580.2  18730.4  18882.0  19035.0  19189.5  19345.6
 G, KJ/KG       -167460.1-168430.6-169402.1-170374.4-171347.8-172322.1-173297.3-174273.5
 S, KJ/(KG)(K)    97.0015  97.0961  97.1908  97.2858  97.3810  97.4765  97.5722  97.6683

 M, (1/n)           2.013    2.013    2.013    2.013    2.013    2.012    2.012    2.012
 (dLV/dLP)t      -1.00061 -1.00066 -1.00070 -1.00075 -1.00080 -1.00085 -1.00091 -1.00097
 (dLV/dLT)p        1.0167   1.0178   1.0190   1.0202   1.0214   1.0228   1.0242   1.0257
 Cp, KJ/(KG)(K)   18.8930  19.0238  19.1599  19.3016  19.4492  19.6028  19.7625  19.9288
 GAMMAs            1.2909   1.2891   1.2872   1.2853   1.2834   1.2814   1.2794   1.2774
 SON VEL,M/SEC     3265.2   3271.2   3277.1   3283.0   3288.7   3294.4   3300.1   3305.7

 TRANSPORT PROPERTIES (GASES ONLY)
   CONDUCTIVITY IN UNITS OF MILLIWATTS/(CM)(K)

 VISC,MILLIPOISE  0.33551  0.33677  0.33803  0.33930  0.34057  0.34183  0.34310  0.34438

  WITH EQUILIBRIUM REACTIONS

 Cp, KJ/(KG)(K)   18.8930  19.0238  19.1599  19.3016  19.4492  19.6028  19.7625  19.9288
 CONDUCTIVITY      9.8243   9.9735  10.1286  10.2899  10.4577  10.6322  10.8136  11.0022
 PRANDTL NUMBER    0.6452   0.6424   0.6394   0.6365   0.6334   0.6302   0.6270   0.6238

  WITH FROZEN REACTIONS

 Cp, KJ/(KG)(K)   17.0074  17.0251  17.0426  17.0602  17.0776  17.0950  17.1123  17.1295
 CONDUCTIVITY      8.1089   8.1478   8.1868   8.2259   8.2651   8.3044   8.3438   8.3833
 PRANDTL NUMBER    0.7037   0.7037   0.7037   0.7037   0.7037   0.7037   0.7037   0.7037

 MOLE FRACTIONS

 *H               0.00245  0.00262  0.00281  0.00300  0.00320  0.00342  0.00365  0.00389
 *H2              0.99755  0.99738  0.99719  0.99700  0.99680  0.99658  0.99635  0.99611

  * THERMODYNAMIC PROPERTIES FITTED TO 20000.K

 NOTE. WEIGHT FRACTION OF FUEL IN TOTAL FUELS AND OF OXIDANT IN TOTAL OXIDANTS









               THERMODYNAMIC EQUILIBRIUM PROPERTIES AT ASSIGNED

                           TEMPERATURE AND PRESSURE

 CASE =                

             REACTANT                    WT FRACTION      ENERGY      TEMP
                                          (SEE NOTE)     KJ/KG-MOL      K  
             H2                           1.0000000         0.000      0.000

 O/F=    0.00000  %FUEL=100.000000  R,EQ.RATIO= 0.000000  PHI,EQ.RATIO= 0.000000

 THERMODYNAMIC PROPERTIES

 P, BAR           0.44000  0.44000  0.49000  0.49000  0.49000  0.49000  0.49000  0.49000
 T, K             2080.00  2090.00  1950.00  1960.00  1970.00  1980.00  1990.00  2000.00
 RHO, KG/CU M    5.1182-3 5.0930-3 6.0874-3 6.0560-3 6.0249-3 5.9940-3 5.9635-3 5.9332-3
 H, KJ/KG         28100.1  28302.0  25603.0  25785.9  25969.9  26154.9  26341.1  26528.4
 U, KJ/KG         19503.3  19662.8  17553.6  17694.8  17836.9  17980.1  18124.4  18269.8
 G, KJ/KG       -175250.7-176228.8-161755.5-162716.7-163679.0-164642.1-165606.2-166571.2
 S, KJ/(KG)(K)    97.7648  97.8616  96.0813  96.1748  96.2684  96.3621  96.4559  96.5498

 M, (1/n)           2.012    2.011    2.014    2.014    2.014    2.014    2.014    2.014
 (dLV/dLP)t      -1.00104 -1.00110 -1.00041 -1.00044 -1.00047 -1.00051 -1.00054 -1.00058
 (dLV/dLT)p        1.0272   1.0288   1.0115   1.0122   1.0131   1.0140   1.0149   1.0159
 Cp, KJ/(KG)(K)   20.1016  20.2814  18.2407  18.3425  18.4486  18.5591  18.6742  18.7940
 GAMMAs            1.2754   1.2733   1.3006   1.2990   1.2973   1.2957   1.2940   1.2922
 SON VEL,M/SEC     3311.2   3316.7   3235.6   3241.9   3248.3   3254.5   3260.7   3266.8

 TRANSPORT PROPERTIES (GASES ONLY)
   CONDUCTIVITY IN UNITS OF MILLIWATTS/(CM)(K)

 VISC,MILLIPOISE  0.34565  0.34693  0.32921  0.33046  0.33172  0.33297  0.33423  0.33549

  WITH EQUILIBRIUM REACTIONS

 Cp, KJ/(KG)(K)   20.1016  20.2814  18.2407  18.3425  18.4486  18.5591  18.6742  18.7940
 CONDUCTIVITY     11.1984  11.4023   9.0939   9.2122   9.3352   9.4629   9.5957   9.7336
 PRANDTL NUMBER    0.6205   0.6171   0.6603   0.6580   0.6556   0.6530   0.6504   0.6478

  WITH FROZEN REACTIONS

 Cp, KJ/(KG)(K)   17.1467  17.1638  16.9179  16.9359  16.9538  16.9717  16.9895  17.0072
 CONDUCTIVITY      8.4230   8.4628   7.9153   7.9536   7.9921   8.0307   8.0693   8.1080
 PRANDTL NUMBER    0.7036   0.7036   0.7036   0.7037   0.7037   0.7037   0.7037   0.7037

 MOLE FRACTIONS

 *H               0.00414  0.00441  0.00164  0.00176  0.00189  0.00203  0.00217  0.00232
 *H2              0.99586  0.99559  0.99836  0.99824  0.99811  0.99797  0.99783  0.99768

  * THERMODYNAMIC PROPERTIES FITTED TO 20000.K

 NOTE. WEIGHT FRACTION OF FUEL IN TOTAL FUELS AND OF OXIDANT IN TOTAL OXIDANTS









               THERMODYNAMIC EQUILIBRIUM PROPERTIES AT ASSIGNED

                           TEMPERATURE AND PRESSURE

 CASE =                

             REACTANT                    WT FRACTION      ENERGY      TEMP
                                          (SEE NOTE)     KJ/KG-MOL      K  
             H2                           1.0000000         0.000      0.000

 O/F=    0.00000  %FUEL=100.000000  R,EQ.RATIO= 0.000000  PHI,EQ.RATIO= 0.000000

 THERMODYNAMIC PROPERTIES

 P, BAR           0.49000  0.49000  0.49000  0.49000  0.49000  0.49000  0.49000  0.49000
 T, K             2010.00  2020.00  2030.00  2040.00  2050.00  2060.00  2070.00  2080.00
 RHO, KG/CU M    5.9032-3 5.8735-3 5.8440-3 5.8148-3 5.7858-3 5.7571-3 5.7287-3 5.7004-3
 H, KJ/KG         26717.0  26906.8  27098.0  27290.5  27484.5  27680.0  27877.0  28075.6
 U, KJ/KG         18416.4  18564.2  18713.3  18863.7  19015.5  19168.8  19323.5  19479.8
 G, KJ/KG       -167537.2-168504.1-169472.0-170440.7-171410.5-172381.2-173352.8-174325.4
 S, KJ/(KG)(K)    96.6439  96.7381  96.8325  96.9271  97.0219  97.1171  97.2125  97.3082

 M, (1/n)           2.013    2.013    2.013    2.013    2.013    2.012    2.012    2.012
 (dLV/dLP)t      -1.00062 -1.00067 -1.00071 -1.00076 -1.00081 -1.00086 -1.00092 -1.00098
 (dLV/dLT)p        1.0169   1.0180   1.0191   1.0203   1.0216   1.0229   1.0243   1.0258
 Cp, KJ/(KG)(K)   18.9188  19.0487  19.1839  19.3246  19.4711  19.6234  19.7818  19.9465
 GAMMAs            1.2905   1.2887   1.2868   1.2850   1.2831   1.2811   1.2792   1.2772
 SON VEL,M/SEC     3272.9   3278.9   3284.8   3290.6   3296.4   3302.1   3307.8   3313.4

 TRANSPORT PROPERTIES (GASES ONLY)
   CONDUCTIVITY IN UNITS OF MILLIWATTS/(CM)(K)

 VISC,MILLIPOISE  0.33675  0.33801  0.33927  0.34053  0.34180  0.34307  0.34434  0.34561

  WITH EQUILIBRIUM REACTIONS

 Cp, KJ/(KG)(K)   18.9188  19.0487  19.1839  19.3246  19.4711  19.6234  19.7818  19.9465
 CONDUCTIVITY      9.8769  10.0259  10.1808  10.3418  10.5091  10.6830  10.8638  11.0516
 PRANDTL NUMBER    0.6450   0.6422   0.6393   0.6363   0.6333   0.6302   0.6270   0.6238

  WITH FROZEN REACTIONS

 Cp, KJ/(KG)(K)   17.0248  17.0424  17.0599  17.0773  17.0947  17.1120  17.1292  17.1463
 CONDUCTIVITY      8.1468   8.1857   8.2247   8.2638   8.3031   8.3424   8.3818   8.4214
 PRANDTL NUMBER    0.7037   0.7037   0.7037   0.7037   0.7037   0.7037   0.7037   0.7037

 MOLE FRACTIONS

 *H               0.00249  0.00266  0.00284  0.00304  0.00324  0.00346  0.00369  0.00393
 *H2              0.99751  0.99734  0.99716  0.99696  0.99676  0.99654  0.99631  0.99607

  * THERMODYNAMIC PROPERTIES FITTED TO 20000.K

 NOTE. WEIGHT FRACTION OF FUEL IN TOTAL FUELS AND OF OXIDANT IN TOTAL OXIDANTS









               THERMODYNAMIC EQUILIBRIUM PROPERTIES AT ASSIGNED

                           TEMPERATURE AND PRESSURE

 CASE =                

             REACTANT                    WT FRACTION      ENERGY      TEMP
                                          (SEE NOTE)     KJ/KG-MOL      K  
             H2                           1.0000000         0.000      0.000

 O/F=    0.00000  %FUEL=100.000000  R,EQ.RATIO= 0.000000  PHI,EQ.RATIO= 0.000000

 THERMODYNAMIC PROPERTIES

 P, BAR           0.49000
 T, K             2090.00
 RHO, KG/CU M    5.6724-3
 H, KJ/KG         28275.9
 U, KJ/KG         19637.7
 G, KJ/KG       -175299.0
 S, KJ/(KG)(K)    97.4043

 M, (1/n)           2.012
 (dLV/dLP)t      -1.00105
 (dLV/dLT)p        1.0273
 Cp, KJ/(KG)(K)   20.1177
 GAMMAs            1.2752
 SON VEL,M/SEC     3318.9

 TRANSPORT PROPERTIES (GASES ONLY)
   CONDUCTIVITY IN UNITS OF MILLIWATTS/(CM)(K)

 VISC,MILLIPOISE  0.34689

  WITH EQUILIBRIUM REACTIONS

 Cp, KJ/(KG)(K)   20.1177
 CONDUCTIVITY     11.2469
 PRANDTL NUMBER    0.6205

  WITH FROZEN REACTIONS

 Cp, KJ/(KG)(K)   17.1634
 CONDUCTIVITY      8.4611
 PRANDTL NUMBER    0.7037

 MOLE FRACTIONS

 *H               0.00418
 *H2              0.99582

  * THERMODYNAMIC PROPERTIES FITTED TO 20000.K

 NOTE. WEIGHT FRACTION OF FUEL IN TOTAL FUELS AND OF OXIDANT IN TOTAL OXIDANTS



  
