
 *******************************************************************************

         NASA-GLENN CHEMICAL EQUILIBRIUM PROGRAM CEA2, MAY 21, 2004
                   BY  BONNIE MCBRIDE AND SANFORD GORDON
      REFS: NASA RP-1311, PART I, 1994 AND NASA RP-1311, PART II, 1996

 *******************************************************************************



  prob tp ions
  p,bar= 0.11,0.12,0.132,0.148,0.165,0.18,0.2,0.225,0.25,0.28,0.31,0.35,0.39,0.44
 ,0.49
  t,k= 1550,1560,1570,1580,1590,1600,1610,1620,1630,1640,1650,1660,1670,1680,1690
  
  
  reac
  fuel H2                wt%=100.0000
  oxid H2                wt%=100.0000
  
  output short
  
  output massf
  
  output siunits
  
  output transport
  
 end





               THERMODYNAMIC EQUILIBRIUM PROPERTIES AT ASSIGNED

                           TEMPERATURE AND PRESSURE

 CASE =                

             REACTANT                    WT FRACTION      ENERGY      TEMP
                                          (SEE NOTE)     KJ/KG-MOL      K  
 FUEL        H2                           1.0000000         0.000      0.000
 OXIDANT     H2                           1.0000000         0.000      0.000

 O/F=    1.00000  %FUEL= 50.000000  R,EQ.RATIO= 0.000000  PHI,EQ.RATIO=-1.000000

 THERMODYNAMIC PROPERTIES

 P, BAR           0.11000  0.11000  0.11000  0.11000  0.11000  0.11000  0.11000  0.11000
 T, K             1550.00  1560.00  1570.00  1580.00  1590.00  1600.00  1610.00  1620.00
 RHO, KG/CU M    1.7206-3 1.7095-3 1.6986-3 1.6879-3 1.6772-3 1.6667-3 1.6564-3 1.6461-3
 H, KJ/KG         18815.3  18978.0  19141.0  19304.4  19468.1  19632.2  19796.8  19961.7
 U, KJ/KG         12422.0  12543.4  12665.1  12787.2  12909.7  13032.5  13155.7  13279.3
 G, KJ/KG       -133637.6-134621.2-135606.3-136592.4-137579.6-138567.9-139557.1-140547.4
 S, KJ/(KG)(K)    98.3567  98.4610  98.5651  98.6689  98.7722  98.8751  98.9776  99.0797

 M, (1/n)           2.016    2.016    2.016    2.016    2.016    2.016    2.016    2.016
 (dLV/dLP)t      -1.00002 -1.00003 -1.00003 -1.00003 -1.00004 -1.00004 -1.00005 -1.00005
 (dLV/dLT)p        1.0008   1.0009   1.0010   1.0011   1.0013   1.0014   1.0015   1.0017
 Cp, KJ/(KG)(K)   16.2517  16.2854  16.3202  16.3560  16.3931  16.4315  16.4713  16.5126
 GAMMAs            1.3408   1.3400   1.3391   1.3382   1.3373   1.3363   1.3354   1.3344
 SON VEL,M/SEC     2927.9   2936.4   2944.8   2953.2   2961.5   2969.8   2978.0   2986.1

 TRANSPORT PROPERTIES (GASES ONLY)
   CONDUCTIVITY IN UNITS OF MILLIWATTS/(CM)(K)

 VISC,MILLIPOISE  0.27907  0.28034  0.28161  0.28288  0.28414  0.28540  0.28667  0.28793

  WITH EQUILIBRIUM REACTIONS

 Cp, KJ/(KG)(K)   16.2517  16.2854  16.3202  16.3560  16.3931  16.4315  16.4713  16.5126
 CONDUCTIVITY      6.5071   6.5532   6.6007   6.6493   6.6990   6.7499   6.8020   6.8556
 PRANDTL NUMBER    0.6970   0.6967   0.6963   0.6958   0.6953   0.6948   0.6942   0.6935

  WITH FROZEN REACTIONS

 Cp, KJ/(KG)(K)   16.1321  16.1533  16.1744  16.1955  16.2164  16.2374  16.2582  16.2790
 CONDUCTIVITY      6.4189   6.4553   6.4921   6.5290   6.5660   6.6029   6.6399   6.6770
 PRANDTL NUMBER    0.7014   0.7015   0.7016   0.7017   0.7018   0.7018   0.7019   0.7020

 MASS FRACTIONS

 *H               0.00005  0.00005  0.00006  0.00007  0.00007  0.00008  0.00009  0.00010
 *H2              0.99995  0.99995  0.99994  0.99993  0.99993  0.99992  0.99991  0.99990

  * THERMODYNAMIC PROPERTIES FITTED TO 20000.K

 NOTE. WEIGHT FRACTION OF FUEL IN TOTAL FUELS AND OF OXIDANT IN TOTAL OXIDANTS









               THERMODYNAMIC EQUILIBRIUM PROPERTIES AT ASSIGNED

                           TEMPERATURE AND PRESSURE

 CASE =                

             REACTANT                    WT FRACTION      ENERGY      TEMP
                                          (SEE NOTE)     KJ/KG-MOL      K  
 FUEL        H2                           1.0000000         0.000      0.000
 OXIDANT     H2                           1.0000000         0.000      0.000

 O/F=    1.00000  %FUEL= 50.000000  R,EQ.RATIO= 0.000000  PHI,EQ.RATIO=-1.000000

 THERMODYNAMIC PROPERTIES

 P, BAR           0.11000  0.11000  0.11000  0.11000  0.11000  0.11000  0.11000  0.12000
 T, K             1630.00  1640.00  1650.00  1660.00  1670.00  1680.00  1690.00  1550.00
 RHO, KG/CU M    1.6360-3 1.6260-3 1.6161-3 1.6064-3 1.5967-3 1.5872-3 1.5778-3 1.8770-3
 H, KJ/KG         20127.0  20292.8  20459.0  20625.7  20792.9  20960.6  21128.9  18814.8
 U, KJ/KG         13403.3  13527.8  13652.6  13778.0  13903.8  14030.2  14157.1  12421.6
 G, KJ/KG       -141538.7-142531.1-143524.4-144518.7-145514.1-146510.4-147507.8-133080.8
 S, KJ/(KG)(K)    99.1814  99.2828  99.3839  99.4846  99.5850  99.6852  99.7850  97.9972

 M, (1/n)           2.016    2.016    2.016    2.016    2.016    2.016    2.015    2.016
 (dLV/dLP)t      -1.00006 -1.00006 -1.00007 -1.00008 -1.00008 -1.00009 -1.00010 -1.00002
 (dLV/dLT)p        1.0019   1.0021   1.0023   1.0025   1.0027   1.0030   1.0032   1.0008
 Cp, KJ/(KG)(K)   16.5555  16.6001  16.6465  16.6948  16.7452  16.7979  16.8528  16.2466
 GAMMAs            1.3334   1.3324   1.3313   1.3302   1.3291   1.3279   1.3268   1.3410
 SON VEL,M/SEC     2994.2   3002.2   3010.2   3018.1   3025.9   3033.7   3041.4   2928.0

 TRANSPORT PROPERTIES (GASES ONLY)
   CONDUCTIVITY IN UNITS OF MILLIWATTS/(CM)(K)

 VISC,MILLIPOISE  0.28919  0.29045  0.29171  0.29297  0.29423  0.29549  0.29675  0.27907

  WITH EQUILIBRIUM REACTIONS

 Cp, KJ/(KG)(K)   16.5555  16.6001  16.6465  16.6948  16.7452  16.7979  16.8528  16.2466
 CONDUCTIVITY      6.9106   6.9672   7.0255   7.0856   7.1476   7.2118   7.2781   6.5029
 PRANDTL NUMBER    0.6928   0.6920   0.6912   0.6903   0.6893   0.6883   0.6871   0.6972

  WITH FROZEN REACTIONS

 Cp, KJ/(KG)(K)   16.2997  16.3203  16.3408  16.3613  16.3817  16.4020  16.4222  16.1321
 CONDUCTIVITY      6.7140   6.7511   6.7883   6.8254   6.8626   6.8999   6.9372   6.4184
 PRANDTL NUMBER    0.7021   0.7021   0.7022   0.7023   0.7024   0.7024   0.7025   0.7014

 MASS FRACTIONS

 *H               0.00011  0.00012  0.00014  0.00015  0.00017  0.00018  0.00020  0.00005
 *H2              0.99989  0.99988  0.99986  0.99985  0.99983  0.99982  0.99980  0.99995

  * THERMODYNAMIC PROPERTIES FITTED TO 20000.K

 NOTE. WEIGHT FRACTION OF FUEL IN TOTAL FUELS AND OF OXIDANT IN TOTAL OXIDANTS









               THERMODYNAMIC EQUILIBRIUM PROPERTIES AT ASSIGNED

                           TEMPERATURE AND PRESSURE

 CASE =                

             REACTANT                    WT FRACTION      ENERGY      TEMP
                                          (SEE NOTE)     KJ/KG-MOL      K  
 FUEL        H2                           1.0000000         0.000      0.000
 OXIDANT     H2                           1.0000000         0.000      0.000

 O/F=    1.00000  %FUEL= 50.000000  R,EQ.RATIO= 0.000000  PHI,EQ.RATIO=-1.000000

 THERMODYNAMIC PROPERTIES

 P, BAR           0.12000  0.12000  0.12000  0.12000  0.12000  0.12000  0.12000  0.12000
 T, K             1560.00  1570.00  1580.00  1590.00  1600.00  1610.00  1620.00  1630.00
 RHO, KG/CU M    1.8649-3 1.8530-3 1.8413-3 1.8297-3 1.8183-3 1.8069-3 1.7958-3 1.7847-3
 H, KJ/KG         18977.5  19140.4  19303.7  19467.4  19631.5  19795.9  19960.7  20125.9
 U, KJ/KG         12542.9  12664.6  12786.6  12909.0  13031.7  13154.8  13278.4  13402.3
 G, KJ/KG       -134061.3-135042.8-136025.4-137009.0-137993.6-138979.3-139966.0-140953.7
 S, KJ/(KG)(K)    98.1017  98.2059  98.3096  98.4128  98.5157  98.6181  98.7202  98.8219

 M, (1/n)           2.016    2.016    2.016    2.016    2.016    2.016    2.016    2.016
 (dLV/dLP)t      -1.00003 -1.00003 -1.00003 -1.00004 -1.00004 -1.00004 -1.00005 -1.00005
 (dLV/dLT)p        1.0009   1.0010   1.0011   1.0012   1.0013   1.0015   1.0016   1.0018
 Cp, KJ/(KG)(K)   16.2798  16.3139  16.3492  16.3856  16.4232  16.4622  16.5026  16.5446
 GAMMAs            1.3401   1.3392   1.3383   1.3374   1.3365   1.3356   1.3346   1.3336
 SON VEL,M/SEC     2936.5   2944.9   2953.3   2961.7   2970.0   2978.2   2986.4   2994.5

 TRANSPORT PROPERTIES (GASES ONLY)
   CONDUCTIVITY IN UNITS OF MILLIWATTS/(CM)(K)

 VISC,MILLIPOISE  0.28034  0.28161  0.28287  0.28414  0.28540  0.28667  0.28793  0.28919

  WITH EQUILIBRIUM REACTIONS

 Cp, KJ/(KG)(K)   16.2798  16.3139  16.3492  16.3856  16.4232  16.4622  16.5026  16.5446
 CONDUCTIVITY      6.5490   6.5961   6.6441   6.6933   6.7436   6.7951   6.8479   6.9022
 PRANDTL NUMBER    0.6969   0.6965   0.6961   0.6956   0.6951   0.6945   0.6939   0.6932

  WITH FROZEN REACTIONS

 Cp, KJ/(KG)(K)   16.1533  16.1744  16.1955  16.2164  16.2373  16.2582  16.2789  16.2996
 CONDUCTIVITY      6.4552   6.4921   6.5290   6.5659   6.6029   6.6399   6.6769   6.7140
 PRANDTL NUMBER    0.7015   0.7016   0.7017   0.7018   0.7018   0.7019   0.7020   0.7021

 MASS FRACTIONS

 *H               0.00005  0.00006  0.00006  0.00007  0.00008  0.00009  0.00010  0.00011
 *H2              0.99995  0.99994  0.99994  0.99993  0.99992  0.99991  0.99990  0.99989

  * THERMODYNAMIC PROPERTIES FITTED TO 20000.K

 NOTE. WEIGHT FRACTION OF FUEL IN TOTAL FUELS AND OF OXIDANT IN TOTAL OXIDANTS









               THERMODYNAMIC EQUILIBRIUM PROPERTIES AT ASSIGNED

                           TEMPERATURE AND PRESSURE

 CASE =                

             REACTANT                    WT FRACTION      ENERGY      TEMP
                                          (SEE NOTE)     KJ/KG-MOL      K  
 FUEL        H2                           1.0000000         0.000      0.000
 OXIDANT     H2                           1.0000000         0.000      0.000

 O/F=    1.00000  %FUEL= 50.000000  R,EQ.RATIO= 0.000000  PHI,EQ.RATIO=-1.000000

 THERMODYNAMIC PROPERTIES

 P, BAR           0.12000  0.12000  0.12000  0.12000  0.12000  0.12000  0.13200  0.13200
 T, K             1640.00  1650.00  1660.00  1670.00  1680.00  1690.00  1550.00  1560.00
 RHO, KG/CU M    1.7738-3 1.7631-3 1.7524-3 1.7419-3 1.7315-3 1.7212-3 2.0647-3 2.0514-3
 H, KJ/KG         20291.6  20457.7  20624.3  20791.3  20958.9  21127.0  18814.4  18976.9
 U, KJ/KG         13526.6  13651.4  13776.6  13902.3  14028.5  14155.2  12421.1  12542.4
 G, KJ/KG       -141942.4-142932.2-143922.9-144914.7-145907.4-146901.2-132471.5-133448.0
 S, KJ/(KG)(K)    98.9232  99.0242  99.1248  99.2251  99.3252  99.4249  97.6038  97.7083

 M, (1/n)           2.016    2.016    2.016    2.016    2.016    2.015    2.016    2.016
 (dLV/dLP)t      -1.00006 -1.00007 -1.00007 -1.00008 -1.00009 -1.00010 -1.00002 -1.00002
 (dLV/dLT)p        1.0020   1.0022   1.0024   1.0026   1.0028   1.0031   1.0008   1.0008
 Cp, KJ/(KG)(K)   16.5881  16.6334  16.6806  16.7297  16.7810  16.8345  16.2413  16.2739
 GAMMAs            1.3326   1.3316   1.3305   1.3294   1.3283   1.3271   1.3411   1.3402
 SON VEL,M/SEC     3002.5   3010.5   3018.4   3026.3   3034.0   3041.8   2928.1   2936.6

 TRANSPORT PROPERTIES (GASES ONLY)
   CONDUCTIVITY IN UNITS OF MILLIWATTS/(CM)(K)

 VISC,MILLIPOISE  0.29045  0.29171  0.29297  0.29423  0.29549  0.29674  0.27907  0.28034

  WITH EQUILIBRIUM REACTIONS

 Cp, KJ/(KG)(K)   16.5881  16.6334  16.6806  16.7297  16.7810  16.8345  16.2413  16.2739
 CONDUCTIVITY      6.9579   7.0153   7.0744   7.1354   7.1984   7.2634   6.4989   6.5446
 PRANDTL NUMBER    0.6925   0.6916   0.6908   0.6898   0.6888   0.6878   0.6974   0.6971

  WITH FROZEN REACTIONS

 Cp, KJ/(KG)(K)   16.3202  16.3408  16.3612  16.3816  16.4019  16.4222  16.1321  16.1533
 CONDUCTIVITY      6.7511   6.7882   6.8253   6.8625   6.8998   6.9370   6.4184   6.4552
 PRANDTL NUMBER    0.7021   0.7022   0.7023   0.7024   0.7024   0.7025   0.7014   0.7015

 MASS FRACTIONS

 *H               0.00012  0.00013  0.00014  0.00016  0.00018  0.00019  0.00004  0.00005
 *H2              0.99988  0.99987  0.99986  0.99984  0.99982  0.99981  0.99996  0.99995

  * THERMODYNAMIC PROPERTIES FITTED TO 20000.K

 NOTE. WEIGHT FRACTION OF FUEL IN TOTAL FUELS AND OF OXIDANT IN TOTAL OXIDANTS









               THERMODYNAMIC EQUILIBRIUM PROPERTIES AT ASSIGNED

                           TEMPERATURE AND PRESSURE

 CASE =                

             REACTANT                    WT FRACTION      ENERGY      TEMP
                                          (SEE NOTE)     KJ/KG-MOL      K  
 FUEL        H2                           1.0000000         0.000      0.000
 OXIDANT     H2                           1.0000000         0.000      0.000

 O/F=    1.00000  %FUEL= 50.000000  R,EQ.RATIO= 0.000000  PHI,EQ.RATIO=-1.000000

 THERMODYNAMIC PROPERTIES

 P, BAR           0.13200  0.13200  0.13200  0.13200  0.13200  0.13200  0.13200  0.13200
 T, K             1570.00  1580.00  1590.00  1600.00  1610.00  1620.00  1630.00  1640.00
 RHO, KG/CU M    2.0383-3 2.0254-3 2.0127-3 2.0001-3 1.9876-3 1.9754-3 1.9632-3 1.9512-3
 H, KJ/KG         19139.8  19303.1  19466.7  19630.6  19795.0  19959.7  20124.8  20290.4
 U, KJ/KG         12664.0  12786.0  12908.3  13030.9  13154.0  13277.4  13401.2  13525.4
 G, KJ/KG       -134425.6-135404.2-136383.9-137364.6-138346.3-139329.1-140312.9-141297.7
 S, KJ/(KG)(K)    97.8124  97.9160  98.0192  98.1220  98.2244  98.3264  98.4280  98.5293

 M, (1/n)           2.016    2.016    2.016    2.016    2.016    2.016    2.016    2.016
 (dLV/dLP)t      -1.00003 -1.00003 -1.00003 -1.00004 -1.00004 -1.00005 -1.00005 -1.00006
 (dLV/dLT)p        1.0009   1.0010   1.0011   1.0013   1.0014   1.0015   1.0017   1.0019
 Cp, KJ/(KG)(K)   16.3074  16.3420  16.3777  16.4146  16.4527  16.4922  16.5331  16.5756
 GAMMAs            1.3394   1.3385   1.3376   1.3367   1.3358   1.3348   1.3339   1.3329
 SON VEL,M/SEC     2945.1   2953.5   2961.9   2970.2   2978.4   2986.6   2994.7   3002.8

 TRANSPORT PROPERTIES (GASES ONLY)
   CONDUCTIVITY IN UNITS OF MILLIWATTS/(CM)(K)

 VISC,MILLIPOISE  0.28161  0.28287  0.28414  0.28540  0.28667  0.28793  0.28919  0.29045

  WITH EQUILIBRIUM REACTIONS

 Cp, KJ/(KG)(K)   16.3074  16.3420  16.3777  16.4146  16.4527  16.4922  16.5331  16.5756
 CONDUCTIVITY      6.5912   6.6387   6.6873   6.7370   6.7878   6.8399   6.8933   6.9482
 PRANDTL NUMBER    0.6967   0.6963   0.6959   0.6954   0.6948   0.6942   0.6936   0.6929

  WITH FROZEN REACTIONS

 Cp, KJ/(KG)(K)   16.1744  16.1954  16.2164  16.2373  16.2582  16.2789  16.2996  16.3202
 CONDUCTIVITY      6.4921   6.5290   6.5659   6.6028   6.6398   6.6769   6.7139   6.7510
 PRANDTL NUMBER    0.7016   0.7017   0.7018   0.7018   0.7019   0.7020   0.7021   0.7021

 MASS FRACTIONS

 *H               0.00005  0.00006  0.00007  0.00007  0.00008  0.00009  0.00010  0.00011
 *H2              0.99995  0.99994  0.99993  0.99993  0.99992  0.99991  0.99990  0.99989

  * THERMODYNAMIC PROPERTIES FITTED TO 20000.K

 NOTE. WEIGHT FRACTION OF FUEL IN TOTAL FUELS AND OF OXIDANT IN TOTAL OXIDANTS









               THERMODYNAMIC EQUILIBRIUM PROPERTIES AT ASSIGNED

                           TEMPERATURE AND PRESSURE

 CASE =                

             REACTANT                    WT FRACTION      ENERGY      TEMP
                                          (SEE NOTE)     KJ/KG-MOL      K  
 FUEL        H2                           1.0000000         0.000      0.000
 OXIDANT     H2                           1.0000000         0.000      0.000

 O/F=    1.00000  %FUEL= 50.000000  R,EQ.RATIO= 0.000000  PHI,EQ.RATIO=-1.000000

 THERMODYNAMIC PROPERTIES

 P, BAR           0.13200  0.13200  0.13200  0.13200  0.13200  0.14800  0.14800  0.14800
 T, K             1650.00  1660.00  1670.00  1680.00  1690.00  1550.00  1560.00  1570.00
 RHO, KG/CU M    1.9394-3 1.9277-3 1.9161-3 1.9047-3 1.8934-3 2.3149-3 2.3001-3 2.2854-3
 H, KJ/KG         20456.3  20622.8  20789.7  20957.0  21124.9  18813.8  18976.3  19139.2
 U, KJ/KG         13650.1  13775.1  13900.7  14026.7  14153.2  12420.6  12541.8  12663.4
 G, KJ/KG       -142283.4-143270.3-144258.1-145246.9-146236.7-131740.0-132711.8-133684.7
 S, KJ/(KG)(K)    98.6302  98.7307  98.8310  98.9309  99.0305  97.1315  97.2360  97.3400

 M, (1/n)           2.016    2.016    2.016    2.016    2.016    2.016    2.016    2.016
 (dLV/dLP)t      -1.00006 -1.00007 -1.00008 -1.00008 -1.00009 -1.00002 -1.00002 -1.00003
 (dLV/dLT)p        1.0021   1.0023   1.0025   1.0027   1.0030   1.0007   1.0008   1.0009
 Cp, KJ/(KG)(K)   16.6198  16.6657  16.7135  16.7633  16.8152  16.2352  16.2672  16.3000
 GAMMAs            1.3318   1.3308   1.3297   1.3286   1.3275   1.3412   1.3404   1.3395
 SON VEL,M/SEC     3010.8   3018.7   3026.6   3034.4   3042.2   2928.3   2936.8   2945.3

 TRANSPORT PROPERTIES (GASES ONLY)
   CONDUCTIVITY IN UNITS OF MILLIWATTS/(CM)(K)

 VISC,MILLIPOISE  0.29171  0.29297  0.29423  0.29548  0.29674  0.27907  0.28034  0.28161

  WITH EQUILIBRIUM REACTIONS

 Cp, KJ/(KG)(K)   16.6198  16.6657  16.7135  16.7633  16.8152  16.2352  16.2672  16.3000
 CONDUCTIVITY      7.0047   7.0628   7.1226   7.1844   7.2481   6.4944   6.5396   6.5856
 PRANDTL NUMBER    0.6921   0.6913   0.6904   0.6895   0.6884   0.6976   0.6973   0.6970

  WITH FROZEN REACTIONS

 Cp, KJ/(KG)(K)   16.3408  16.3612  16.3816  16.4019  16.4221  16.1321  16.1533  16.1744
 CONDUCTIVITY      6.7881   6.8253   6.8624   6.8997   6.9369   6.4184   6.4552   6.4920
 PRANDTL NUMBER    0.7022   0.7023   0.7024   0.7024   0.7025   0.7014   0.7015   0.7016

 MASS FRACTIONS

 *H               0.00013  0.00014  0.00015  0.00017  0.00018  0.00004  0.00005  0.00005
 *H2              0.99987  0.99986  0.99985  0.99983  0.99982  0.99996  0.99995  0.99995

  * THERMODYNAMIC PROPERTIES FITTED TO 20000.K

 NOTE. WEIGHT FRACTION OF FUEL IN TOTAL FUELS AND OF OXIDANT IN TOTAL OXIDANTS









               THERMODYNAMIC EQUILIBRIUM PROPERTIES AT ASSIGNED

                           TEMPERATURE AND PRESSURE

 CASE =                

             REACTANT                    WT FRACTION      ENERGY      TEMP
                                          (SEE NOTE)     KJ/KG-MOL      K  
 FUEL        H2                           1.0000000         0.000      0.000
 OXIDANT     H2                           1.0000000         0.000      0.000

 O/F=    1.00000  %FUEL= 50.000000  R,EQ.RATIO= 0.000000  PHI,EQ.RATIO=-1.000000

 THERMODYNAMIC PROPERTIES

 P, BAR           0.14800  0.14800  0.14800  0.14800  0.14800  0.14800  0.14800  0.14800
 T, K             1580.00  1590.00  1600.00  1610.00  1620.00  1630.00  1640.00  1650.00
 RHO, KG/CU M    2.2710-3 2.2567-3 2.2425-3 2.2286-3 2.2148-3 2.2012-3 2.1878-3 2.1745-3
 H, KJ/KG         19302.3  19465.8  19629.7  19793.9  19958.6  20123.6  20289.0  20454.8
 U, KJ/KG         12785.2  12907.5  13030.0  13153.0  13276.3  13400.0  13524.0  13648.5
 G, KJ/KG       -134658.6-135633.6-136609.5-137586.5-138564.6-139543.6-140523.7-141504.7
 S, KJ/(KG)(K)    97.4436  97.5468  97.6495  97.7519  97.8538  97.9553  98.0565  98.1573

 M, (1/n)           2.016    2.016    2.016    2.016    2.016    2.016    2.016    2.016
 (dLV/dLP)t      -1.00003 -1.00003 -1.00004 -1.00004 -1.00004 -1.00005 -1.00005 -1.00006
 (dLV/dLT)p        1.0010   1.0011   1.0012   1.0013   1.0015   1.0016   1.0018   1.0019
 Cp, KJ/(KG)(K)   16.3339  16.3687  16.4047  16.4419  16.4803  16.5201  16.5614  16.6042
 GAMMAs            1.3387   1.3378   1.3369   1.3360   1.3351   1.3341   1.3332   1.3322
 SON VEL,M/SEC     2953.7   2962.1   2970.4   2978.7   2986.9   2995.0   3003.1   3011.1

 TRANSPORT PROPERTIES (GASES ONLY)
   CONDUCTIVITY IN UNITS OF MILLIWATTS/(CM)(K)

 VISC,MILLIPOISE  0.28287  0.28414  0.28540  0.28666  0.28793  0.28919  0.29045  0.29171

  WITH EQUILIBRIUM REACTIONS

 Cp, KJ/(KG)(K)   16.3339  16.3687  16.4047  16.4419  16.4803  16.5201  16.5614  16.6042
 CONDUCTIVITY      6.6326   6.6805   6.7295   6.7795   6.8308   6.8833   6.9372   6.9926
 PRANDTL NUMBER    0.6966   0.6962   0.6957   0.6952   0.6947   0.6941   0.6934   0.6927

  WITH FROZEN REACTIONS

 Cp, KJ/(KG)(K)   16.1954  16.2164  16.2373  16.2581  16.2789  16.2996  16.3202  16.3407
 CONDUCTIVITY      6.5289   6.5658   6.6028   6.6398   6.6768   6.7138   6.7509   6.7880
 PRANDTL NUMBER    0.7017   0.7018   0.7018   0.7019   0.7020   0.7021   0.7022   0.7022

 MASS FRACTIONS

 *H               0.00006  0.00006  0.00007  0.00008  0.00009  0.00010  0.00011  0.00012
 *H2              0.99994  0.99994  0.99993  0.99992  0.99991  0.99990  0.99989  0.99988

  * THERMODYNAMIC PROPERTIES FITTED TO 20000.K

 NOTE. WEIGHT FRACTION OF FUEL IN TOTAL FUELS AND OF OXIDANT IN TOTAL OXIDANTS









               THERMODYNAMIC EQUILIBRIUM PROPERTIES AT ASSIGNED

                           TEMPERATURE AND PRESSURE

 CASE =                

             REACTANT                    WT FRACTION      ENERGY      TEMP
                                          (SEE NOTE)     KJ/KG-MOL      K  
 FUEL        H2                           1.0000000         0.000      0.000
 OXIDANT     H2                           1.0000000         0.000      0.000

 O/F=    1.00000  %FUEL= 50.000000  R,EQ.RATIO= 0.000000  PHI,EQ.RATIO=-1.000000

 THERMODYNAMIC PROPERTIES

 P, BAR           0.14800  0.14800  0.14800  0.14800  0.16500  0.16500  0.16500  0.16500
 T, K             1660.00  1670.00  1680.00  1690.00  1550.00  1560.00  1570.00  1580.00
 RHO, KG/CU M    2.1613-3 2.1484-3 2.1356-3 2.1229-3 2.5809-3 2.5643-3 2.5480-3 2.5318-3
 H, KJ/KG         20621.0  20787.8  20955.0  21122.6  18813.3  18975.8  19138.6  19301.7
 U, KJ/KG         13773.5  13898.8  14024.7  14151.0  12420.1  12541.3  12662.8  12784.6
 G, KJ/KG       -142486.8-143469.9-144454.0-145439.0-131044.8-132012.2-132980.5-133950.0
 S, KJ/(KG)(K)    98.2578  98.3579  98.4577  98.5572  96.6827  96.7871  96.8911  96.9947

 M, (1/n)           2.016    2.016    2.016    2.016    2.016    2.016    2.016    2.016
 (dLV/dLP)t      -1.00007 -1.00007 -1.00008 -1.00009 -1.00002 -1.00002 -1.00002 -1.00003
 (dLV/dLT)p        1.0021   1.0023   1.0026   1.0028   1.0007   1.0008   1.0008   1.0009
 Cp, KJ/(KG)(K)   16.6487  16.6950  16.7432  16.7933  16.2297  16.2611  16.2934  16.3265
 GAMMAs            1.3311   1.3301   1.3290   1.3279   1.3413   1.3405   1.3397   1.3388
 SON VEL,M/SEC     3019.1   3027.0   3034.9   3042.6   2928.4   2936.9   2945.4   2953.9

 TRANSPORT PROPERTIES (GASES ONLY)
   CONDUCTIVITY IN UNITS OF MILLIWATTS/(CM)(K)

 VISC,MILLIPOISE  0.29297  0.29422  0.29548  0.29674  0.27907  0.28034  0.28161  0.28287

  WITH EQUILIBRIUM REACTIONS

 Cp, KJ/(KG)(K)   16.6487  16.6950  16.7432  16.7933  16.2297  16.2611  16.2934  16.3265
 CONDUCTIVITY      7.0495   7.1081   7.1684   7.2307   6.4903   6.5351   6.5807   6.6271
 PRANDTL NUMBER    0.6919   0.6911   0.6901   0.6892   0.6978   0.6976   0.6972   0.6969

  WITH FROZEN REACTIONS

 Cp, KJ/(KG)(K)   16.3612  16.3816  16.4019  16.4221  16.1321  16.1532  16.1744  16.1954
 CONDUCTIVITY      6.8252   6.8623   6.8995   6.9368   6.4183   6.4551   6.4920   6.5289
 PRANDTL NUMBER    0.7023   0.7024   0.7024   0.7025   0.7014   0.7015   0.7016   0.7017

 MASS FRACTIONS

 *H               0.00013  0.00014  0.00016  0.00017  0.00004  0.00004  0.00005  0.00005
 *H2              0.99987  0.99986  0.99984  0.99983  0.99996  0.99996  0.99995  0.99995

  * THERMODYNAMIC PROPERTIES FITTED TO 20000.K

 NOTE. WEIGHT FRACTION OF FUEL IN TOTAL FUELS AND OF OXIDANT IN TOTAL OXIDANTS









               THERMODYNAMIC EQUILIBRIUM PROPERTIES AT ASSIGNED

                           TEMPERATURE AND PRESSURE

 CASE =                

             REACTANT                    WT FRACTION      ENERGY      TEMP
                                          (SEE NOTE)     KJ/KG-MOL      K  
 FUEL        H2                           1.0000000         0.000      0.000
 OXIDANT     H2                           1.0000000         0.000      0.000

 O/F=    1.00000  %FUEL= 50.000000  R,EQ.RATIO= 0.000000  PHI,EQ.RATIO=-1.000000

 THERMODYNAMIC PROPERTIES

 P, BAR           0.16500  0.16500  0.16500  0.16500  0.16500  0.16500  0.16500  0.16500
 T, K             1590.00  1600.00  1610.00  1620.00  1630.00  1640.00  1650.00  1660.00
 RHO, KG/CU M    2.5159-3 2.5001-3 2.4846-3 2.4692-3 2.4541-3 2.4391-3 2.4243-3 2.4096-3
 H, KJ/KG         19465.1  19628.9  19793.0  19957.5  20122.4  20287.7  20453.4  20619.5
 U, KJ/KG         12906.7  13029.2  13152.1  13275.3  13398.8  13522.8  13647.2  13772.0
 G, KJ/KG       -134920.4-135891.9-136864.4-137838.0-138812.5-139788.1-140764.7-141742.3
 S, KJ/(KG)(K)    97.0978  97.2005  97.3028  97.4046  97.5061  97.6072  97.7079  97.8083

 M, (1/n)           2.016    2.016    2.016    2.016    2.016    2.016    2.016    2.016
 (dLV/dLP)t      -1.00003 -1.00003 -1.00004 -1.00004 -1.00005 -1.00005 -1.00006 -1.00006
 (dLV/dLT)p        1.0010   1.0011   1.0013   1.0014   1.0015   1.0017   1.0018   1.0020
 Cp, KJ/(KG)(K)   16.3606  16.3958  16.4321  16.4696  16.5084  16.5486  16.5903  16.6335
 GAMMAs            1.3380   1.3371   1.3362   1.3353   1.3344   1.3334   1.3324   1.3314
 SON VEL,M/SEC     2962.2   2970.6   2978.9   2987.1   2995.3   3003.4   3011.5   3019.5

 TRANSPORT PROPERTIES (GASES ONLY)
   CONDUCTIVITY IN UNITS OF MILLIWATTS/(CM)(K)

 VISC,MILLIPOISE  0.28414  0.28540  0.28666  0.28792  0.28919  0.29045  0.29170  0.29296

  WITH EQUILIBRIUM REACTIONS

 Cp, KJ/(KG)(K)   16.3606  16.3958  16.4321  16.4696  16.5084  16.5486  16.5903  16.6335
 CONDUCTIVITY      6.6744   6.7227   6.7721   6.8226   6.8743   6.9273   6.9817   7.0375
 PRANDTL NUMBER    0.6965   0.6961   0.6956   0.6950   0.6945   0.6938   0.6932   0.6924

  WITH FROZEN REACTIONS

 Cp, KJ/(KG)(K)   16.2164  16.2373  16.2581  16.2789  16.2996  16.3202  16.3407  16.3611
 CONDUCTIVITY      6.5658   6.6028   6.6397   6.6767   6.7138   6.7508   6.7879   6.8251
 PRANDTL NUMBER    0.7018   0.7018   0.7019   0.7020   0.7021   0.7022   0.7022   0.7023

 MASS FRACTIONS

 *H               0.00006  0.00007  0.00007  0.00008  0.00009  0.00010  0.00011  0.00012
 *H2              0.99994  0.99993  0.99993  0.99992  0.99991  0.99990  0.99989  0.99988

  * THERMODYNAMIC PROPERTIES FITTED TO 20000.K

 NOTE. WEIGHT FRACTION OF FUEL IN TOTAL FUELS AND OF OXIDANT IN TOTAL OXIDANTS









               THERMODYNAMIC EQUILIBRIUM PROPERTIES AT ASSIGNED

                           TEMPERATURE AND PRESSURE

 CASE =                

             REACTANT                    WT FRACTION      ENERGY      TEMP
                                          (SEE NOTE)     KJ/KG-MOL      K  
 FUEL        H2                           1.0000000         0.000      0.000
 OXIDANT     H2                           1.0000000         0.000      0.000

 O/F=    1.00000  %FUEL= 50.000000  R,EQ.RATIO= 0.000000  PHI,EQ.RATIO=-1.000000

 THERMODYNAMIC PROPERTIES

 P, BAR           0.16500  0.16500  0.16500  0.18000  0.18000  0.18000  0.18000  0.18000
 T, K             1670.00  1680.00  1690.00  1550.00  1560.00  1570.00  1580.00  1590.00
 RHO, KG/CU M    2.3952-3 2.3809-3 2.3668-3 2.8155-3 2.7974-3 2.7796-3 2.7620-3 2.7446-3
 H, KJ/KG         20786.1  20953.1  21120.6  18813.0  18975.4  19138.1  19301.1  19464.5
 U, KJ/KG         13897.2  14022.9  14149.0  12419.7  12540.9  12662.3  12784.1  12906.2
 G, KJ/KG       -142720.8-143700.4-144681.0-130488.6-131452.3-132417.1-133382.9-134349.8
 S, KJ/(KG)(K)    97.9083  98.0080  98.1074  96.3236  96.4280  96.5320  96.6355  96.7386

 M, (1/n)           2.016    2.016    2.016    2.016    2.016    2.016    2.016    2.016
 (dLV/dLP)t      -1.00007 -1.00008 -1.00008 -1.00002 -1.00002 -1.00002 -1.00003 -1.00003
 (dLV/dLT)p        1.0022   1.0024   1.0027   1.0006   1.0007   1.0008   1.0009   1.0010
 Cp, KJ/(KG)(K)   16.6784  16.7251  16.7737  16.2255  16.2565  16.2883  16.3209  16.3545
 GAMMAs            1.3304   1.3294   1.3283   1.3414   1.3406   1.3398   1.3390   1.3381
 SON VEL,M/SEC     3027.4   3035.3   3043.1   2928.5   2937.0   2945.5   2954.0   2962.4

 TRANSPORT PROPERTIES (GASES ONLY)
   CONDUCTIVITY IN UNITS OF MILLIWATTS/(CM)(K)

 VISC,MILLIPOISE  0.29422  0.29548  0.29673  0.27907  0.28034  0.28161  0.28287  0.28414

  WITH EQUILIBRIUM REACTIONS

 Cp, KJ/(KG)(K)   16.6784  16.7251  16.7737  16.2255  16.2565  16.2883  16.3209  16.3545
 CONDUCTIVITY      7.0950   7.1541   7.2150   6.4872   6.5317   6.5769   6.6229   6.6698
 PRANDTL NUMBER    0.6916   0.6908   0.6899   0.6980   0.6977   0.6974   0.6971   0.6967

  WITH FROZEN REACTIONS

 Cp, KJ/(KG)(K)   16.3815  16.4018  16.4220  16.1321  16.1532  16.1744  16.1954  16.2164
 CONDUCTIVITY      6.8622   6.8994   6.9367   6.4183   6.4551   6.4920   6.5289   6.5658
 PRANDTL NUMBER    0.7024   0.7024   0.7025   0.7014   0.7015   0.7016   0.7017   0.7018

 MASS FRACTIONS

 *H               0.00014  0.00015  0.00017  0.00004  0.00004  0.00005  0.00005  0.00006
 *H2              0.99986  0.99985  0.99983  0.99996  0.99996  0.99995  0.99995  0.99994

  * THERMODYNAMIC PROPERTIES FITTED TO 20000.K

 NOTE. WEIGHT FRACTION OF FUEL IN TOTAL FUELS AND OF OXIDANT IN TOTAL OXIDANTS









               THERMODYNAMIC EQUILIBRIUM PROPERTIES AT ASSIGNED

                           TEMPERATURE AND PRESSURE

 CASE =                

             REACTANT                    WT FRACTION      ENERGY      TEMP
                                          (SEE NOTE)     KJ/KG-MOL      K  
 FUEL        H2                           1.0000000         0.000      0.000
 OXIDANT     H2                           1.0000000         0.000      0.000

 O/F=    1.00000  %FUEL= 50.000000  R,EQ.RATIO= 0.000000  PHI,EQ.RATIO=-1.000000

 THERMODYNAMIC PROPERTIES

 P, BAR           0.18000  0.18000  0.18000  0.18000  0.18000  0.18000  0.18000  0.18000
 T, K             1600.00  1610.00  1620.00  1630.00  1640.00  1650.00  1660.00  1670.00
 RHO, KG/CU M    2.7274-3 2.7105-3 2.6937-3 2.6772-3 2.6608-3 2.6447-3 2.6287-3 2.6129-3
 H, KJ/KG         19628.2  19792.3  19956.7  20121.5  20286.7  20452.3  20618.3  20784.8
 U, KJ/KG         13028.6  13151.4  13274.5  13398.0  13521.9  13646.2  13770.8  13895.9
 G, KJ/KG       -135317.7-136286.6-137256.6-138227.5-139199.5-140172.5-141146.5-142121.4
 S, KJ/(KG)(K)    96.8412  96.9434  97.0452  97.1467  97.2477  97.3484  97.4487  97.5486

 M, (1/n)           2.016    2.016    2.016    2.016    2.016    2.016    2.016    2.016
 (dLV/dLP)t      -1.00003 -1.00004 -1.00004 -1.00004 -1.00005 -1.00005 -1.00006 -1.00007
 (dLV/dLT)p        1.0011   1.0012   1.0013   1.0015   1.0016   1.0018   1.0019   1.0021
 Cp, KJ/(KG)(K)   16.3891  16.4247  16.4615  16.4995  16.5389  16.5796  16.6219  16.6657
 GAMMAs            1.3372   1.3364   1.3355   1.3346   1.3336   1.3327   1.3317   1.3307
 SON VEL,M/SEC     2970.7   2979.0   2987.3   2995.5   3003.6   3011.7   3019.7   3027.7

 TRANSPORT PROPERTIES (GASES ONLY)
   CONDUCTIVITY IN UNITS OF MILLIWATTS/(CM)(K)

 VISC,MILLIPOISE  0.28540  0.28666  0.28792  0.28918  0.29044  0.29170  0.29296  0.29422

  WITH EQUILIBRIUM REACTIONS

 Cp, KJ/(KG)(K)   16.3891  16.4247  16.4615  16.4995  16.5389  16.5796  16.6219  16.6657
 CONDUCTIVITY      6.7176   6.7664   6.8163   6.8674   6.9197   6.9733   7.0284   7.0850
 PRANDTL NUMBER    0.6963   0.6958   0.6953   0.6948   0.6942   0.6935   0.6928   0.6921

  WITH FROZEN REACTIONS

 Cp, KJ/(KG)(K)   16.2373  16.2581  16.2789  16.2995  16.3202  16.3407  16.3611  16.3815
 CONDUCTIVITY      6.6027   6.6397   6.6767   6.7137   6.7508   6.7879   6.8250   6.8622
 PRANDTL NUMBER    0.7018   0.7019   0.7020   0.7021   0.7022   0.7022   0.7023   0.7024

 MASS FRACTIONS

 *H               0.00006  0.00007  0.00008  0.00009  0.00010  0.00011  0.00012  0.00013
 *H2              0.99994  0.99993  0.99992  0.99991  0.99990  0.99989  0.99988  0.99987

  * THERMODYNAMIC PROPERTIES FITTED TO 20000.K

 NOTE. WEIGHT FRACTION OF FUEL IN TOTAL FUELS AND OF OXIDANT IN TOTAL OXIDANTS









               THERMODYNAMIC EQUILIBRIUM PROPERTIES AT ASSIGNED

                           TEMPERATURE AND PRESSURE

 CASE =                

             REACTANT                    WT FRACTION      ENERGY      TEMP
                                          (SEE NOTE)     KJ/KG-MOL      K  
 FUEL        H2                           1.0000000         0.000      0.000
 OXIDANT     H2                           1.0000000         0.000      0.000

 O/F=    1.00000  %FUEL= 50.000000  R,EQ.RATIO= 0.000000  PHI,EQ.RATIO=-1.000000

 THERMODYNAMIC PROPERTIES

 P, BAR           0.18000  0.18000  0.20000  0.20000  0.20000  0.20000  0.20000  0.20000
 T, K             1680.00  1690.00  1550.00  1560.00  1570.00  1580.00  1590.00  1600.00
 RHO, KG/CU M    2.5973-3 2.5819-3 3.1283-3 3.1083-3 3.0884-3 3.0689-3 3.0496-3 3.0305-3
 H, KJ/KG         20951.6  21119.0  18812.5  18974.9  19137.6  19300.5  19463.9  19627.5
 U, KJ/KG         14021.5  14147.5  12419.3  12540.4  12661.8  12783.5  12905.5  13027.9
 G, KJ/KG       -143097.4-144074.4-129815.0-130774.3-131734.8-132696.3-133658.8-134622.3
 S, KJ/(KG)(K)    97.6483  97.7476  95.8887  95.9931  96.0970  96.2005  96.3036  96.4062

 M, (1/n)           2.016    2.016    2.016    2.016    2.016    2.016    2.016    2.016
 (dLV/dLP)t      -1.00007 -1.00008 -1.00002 -1.00002 -1.00002 -1.00002 -1.00003 -1.00003
 (dLV/dLT)p        1.0023   1.0025   1.0006   1.0007   1.0008   1.0008   1.0009   1.0010
 Cp, KJ/(KG)(K)   16.7113  16.7587  16.2207  16.2512  16.2824  16.3145  16.3474  16.3813
 GAMMAs            1.3296   1.3286   1.3415   1.3407   1.3399   1.3391   1.3383   1.3374
 SON VEL,M/SEC     3035.6   3043.4   2928.6   2937.2   2945.7   2954.1   2962.6   2970.9

 TRANSPORT PROPERTIES (GASES ONLY)
   CONDUCTIVITY IN UNITS OF MILLIWATTS/(CM)(K)

 VISC,MILLIPOISE  0.29548  0.29673  0.27907  0.28034  0.28160  0.28287  0.28414  0.28540

  WITH EQUILIBRIUM REACTIONS

 Cp, KJ/(KG)(K)   16.7113  16.7587  16.2207  16.2512  16.2824  16.3145  16.3474  16.3813
 CONDUCTIVITY      7.1432   7.2031   6.4837   6.5277   6.5725   6.6180   6.6644   6.7116
 PRANDTL NUMBER    0.6913   0.6904   0.6982   0.6979   0.6976   0.6973   0.6970   0.6966

  WITH FROZEN REACTIONS

 Cp, KJ/(KG)(K)   16.4018  16.4220  16.1320  16.1532  16.1743  16.1954  16.2164  16.2373
 CONDUCTIVITY      6.8994   6.9366   6.4183   6.4551   6.4919   6.5288   6.5657   6.6027
 PRANDTL NUMBER    0.7024   0.7025   0.7014   0.7015   0.7016   0.7017   0.7018   0.7019

 MASS FRACTIONS

 *H               0.00014  0.00016  0.00004  0.00004  0.00004  0.00005  0.00005  0.00006
 *H2              0.99986  0.99984  0.99996  0.99996  0.99996  0.99995  0.99995  0.99994

  * THERMODYNAMIC PROPERTIES FITTED TO 20000.K

 NOTE. WEIGHT FRACTION OF FUEL IN TOTAL FUELS AND OF OXIDANT IN TOTAL OXIDANTS









               THERMODYNAMIC EQUILIBRIUM PROPERTIES AT ASSIGNED

                           TEMPERATURE AND PRESSURE

 CASE =                

             REACTANT                    WT FRACTION      ENERGY      TEMP
                                          (SEE NOTE)     KJ/KG-MOL      K  
 FUEL        H2                           1.0000000         0.000      0.000
 OXIDANT     H2                           1.0000000         0.000      0.000

 O/F=    1.00000  %FUEL= 50.000000  R,EQ.RATIO= 0.000000  PHI,EQ.RATIO=-1.000000

 THERMODYNAMIC PROPERTIES

 P, BAR           0.20000  0.20000  0.20000  0.20000  0.20000  0.20000  0.20000  0.20000
 T, K             1610.00  1620.00  1630.00  1640.00  1650.00  1660.00  1670.00  1680.00
 RHO, KG/CU M    3.0116-3 2.9930-3 2.9746-3 2.9565-3 2.9385-3 2.9208-3 2.9033-3 2.8860-3
 H, KJ/KG         19791.5  19955.8  20120.5  20285.6  20451.1  20617.0  20783.3  20950.0
 U, KJ/KG         13150.6  13273.6  13397.0  13520.8  13645.0  13769.5  13894.5  14019.9
 G, KJ/KG       -135586.9-136552.5-137519.1-138486.7-139455.4-140425.0-141395.6-142367.3
 S, KJ/(KG)(K)    96.5083  96.6101  96.7114  96.8124  96.9130  97.0132  97.1131  97.2127

 M, (1/n)           2.016    2.016    2.016    2.016    2.016    2.016    2.016    2.016
 (dLV/dLP)t      -1.00003 -1.00004 -1.00004 -1.00005 -1.00005 -1.00006 -1.00006 -1.00007
 (dLV/dLT)p        1.0011   1.0013   1.0014   1.0015   1.0017   1.0018   1.0020   1.0022
 Cp, KJ/(KG)(K)   16.4161  16.4521  16.4892  16.5276  16.5673  16.6085  16.6511  16.6954
 GAMMAs            1.3365   1.3357   1.3348   1.3338   1.3329   1.3320   1.3310   1.3300
 SON VEL,M/SEC     2979.2   2987.5   2995.7   3003.9   3012.0   3020.0   3028.0   3035.9

 TRANSPORT PROPERTIES (GASES ONLY)
   CONDUCTIVITY IN UNITS OF MILLIWATTS/(CM)(K)

 VISC,MILLIPOISE  0.28666  0.28792  0.28918  0.29044  0.29170  0.29296  0.29422  0.29547

  WITH EQUILIBRIUM REACTIONS

 Cp, KJ/(KG)(K)   16.4161  16.4521  16.4892  16.5276  16.5673  16.6085  16.6511  16.6954
 CONDUCTIVITY      6.7599   6.8091   6.8595   6.9110   6.9638   7.0179   7.0735   7.1306
 PRANDTL NUMBER    0.6961   0.6957   0.6952   0.6946   0.6940   0.6933   0.6926   0.6918

  WITH FROZEN REACTIONS

 Cp, KJ/(KG)(K)   16.2581  16.2788  16.2995  16.3201  16.3407  16.3611  16.3815  16.4018
 CONDUCTIVITY      6.6396   6.6766   6.7137   6.7507   6.7878   6.8249   6.8621   6.8993
 PRANDTL NUMBER    0.7019   0.7020   0.7021   0.7022   0.7022   0.7023   0.7024   0.7024

 MASS FRACTIONS

 *H               0.00007  0.00008  0.00008  0.00009  0.00010  0.00011  0.00012  0.00014
 *H2              0.99993  0.99992  0.99992  0.99991  0.99990  0.99989  0.99988  0.99986

  * THERMODYNAMIC PROPERTIES FITTED TO 20000.K

 NOTE. WEIGHT FRACTION OF FUEL IN TOTAL FUELS AND OF OXIDANT IN TOTAL OXIDANTS









               THERMODYNAMIC EQUILIBRIUM PROPERTIES AT ASSIGNED

                           TEMPERATURE AND PRESSURE

 CASE =                

             REACTANT                    WT FRACTION      ENERGY      TEMP
                                          (SEE NOTE)     KJ/KG-MOL      K  
 FUEL        H2                           1.0000000         0.000      0.000
 OXIDANT     H2                           1.0000000         0.000      0.000

 O/F=    1.00000  %FUEL= 50.000000  R,EQ.RATIO= 0.000000  PHI,EQ.RATIO=-1.000000

 THERMODYNAMIC PROPERTIES

 P, BAR           0.20000  0.22500  0.22500  0.22500  0.22500  0.22500  0.22500  0.22500
 T, K             1690.00  1550.00  1560.00  1570.00  1580.00  1590.00  1600.00  1610.00
 RHO, KG/CU M    2.8688-3 3.5194-3 3.4968-3 3.4745-3 3.4525-3 3.4308-3 3.4093-3 3.3881-3
 H, KJ/KG         21117.2  18812.1  18974.4  19137.0  19299.9  19463.2  19626.7  19790.6
 U, KJ/KG         14145.7  12418.9  12539.9  12661.3  12782.9  12904.9  13027.1  13149.7
 G, KJ/KG       -143339.9-129061.9-130016.5-130972.1-131928.7-132886.3-133845.0-134804.7
 S, KJ/(KG)(K)    97.3119  95.4026  95.5070  95.6109  95.7143  95.8173  95.9198  96.0220

 M, (1/n)           2.016    2.016    2.016    2.016    2.016    2.016    2.016    2.016
 (dLV/dLP)t      -1.00008 -1.00002 -1.00002 -1.00002 -1.00002 -1.00003 -1.00003 -1.00003
 (dLV/dLT)p        1.0024   1.0006   1.0006   1.0007   1.0008   1.0009   1.0010   1.0011
 Cp, KJ/(KG)(K)   16.7413  16.2157  16.2456  16.2762  16.3076  16.3399  16.3730  16.4071
 GAMMAs            1.3289   1.3416   1.3408   1.3401   1.3392   1.3384   1.3376   1.3367
 SON VEL,M/SEC     3043.8   2928.7   2937.3   2945.8   2954.3   2962.7   2971.1   2979.4

 TRANSPORT PROPERTIES (GASES ONLY)
   CONDUCTIVITY IN UNITS OF MILLIWATTS/(CM)(K)

 VISC,MILLIPOISE  0.29673  0.27907  0.28034  0.28160  0.28287  0.28413  0.28540  0.28666

  WITH EQUILIBRIUM REACTIONS

 Cp, KJ/(KG)(K)   16.7413  16.2157  16.2456  16.2762  16.3076  16.3399  16.3730  16.4071
 CONDUCTIVITY      7.1893   6.4799   6.5235   6.5678   6.6129   6.6587   6.7054   6.7529
 PRANDTL NUMBER    0.6910   0.6984   0.6981   0.6979   0.6976   0.6972   0.6969   0.6965

  WITH FROZEN REACTIONS

 Cp, KJ/(KG)(K)   16.4220  16.1320  16.1532  16.1743  16.1954  16.2164  16.2373  16.2581
 CONDUCTIVITY      6.9365   6.4183   6.4551   6.4919   6.5288   6.5657   6.6026   6.6396
 PRANDTL NUMBER    0.7025   0.7014   0.7015   0.7016   0.7017   0.7018   0.7019   0.7019

 MASS FRACTIONS

 *H               0.00015  0.00003  0.00004  0.00004  0.00005  0.00005  0.00006  0.00006
 *H2              0.99985  0.99997  0.99996  0.99996  0.99995  0.99995  0.99994  0.99994

  * THERMODYNAMIC PROPERTIES FITTED TO 20000.K

 NOTE. WEIGHT FRACTION OF FUEL IN TOTAL FUELS AND OF OXIDANT IN TOTAL OXIDANTS









               THERMODYNAMIC EQUILIBRIUM PROPERTIES AT ASSIGNED

                           TEMPERATURE AND PRESSURE

 CASE =                

             REACTANT                    WT FRACTION      ENERGY      TEMP
                                          (SEE NOTE)     KJ/KG-MOL      K  
 FUEL        H2                           1.0000000         0.000      0.000
 OXIDANT     H2                           1.0000000         0.000      0.000

 O/F=    1.00000  %FUEL= 50.000000  R,EQ.RATIO= 0.000000  PHI,EQ.RATIO=-1.000000

 THERMODYNAMIC PROPERTIES

 P, BAR           0.22500  0.22500  0.22500  0.22500  0.22500  0.22500  0.22500  0.22500
 T, K             1620.00  1630.00  1640.00  1650.00  1660.00  1670.00  1680.00  1690.00
 RHO, KG/CU M    3.3672-3 3.3465-3 3.3261-3 3.3059-3 3.2859-3 3.2662-3 3.2467-3 3.2275-3
 H, KJ/KG         19954.9  20119.5  20284.4  20449.8  20615.5  20781.7  20948.2  21115.3
 U, KJ/KG         13272.7  13396.0  13519.7  13643.7  13768.1  13892.9  14018.2  14143.9
 G, KJ/KG       -135765.5-136727.2-137690.0-138653.7-139618.5-140584.3-141551.0-142518.8
 S, KJ/(KG)(K)    96.1237  96.2250  96.3259  96.4264  96.5265  96.6263  96.7258  96.8249

 M, (1/n)           2.016    2.016    2.016    2.016    2.016    2.016    2.016    2.016
 (dLV/dLP)t      -1.00004 -1.00004 -1.00004 -1.00005 -1.00005 -1.00006 -1.00006 -1.00007
 (dLV/dLT)p        1.0012   1.0013   1.0014   1.0016   1.0017   1.0019   1.0021   1.0023
 Cp, KJ/(KG)(K)   16.4422  16.4784  16.5157  16.5543  16.5943  16.6357  16.6785  16.7230
 GAMMAs            1.3359   1.3350   1.3341   1.3332   1.3322   1.3313   1.3303   1.3293
 SON VEL,M/SEC     2987.7   2996.0   3004.1   3012.3   3020.3   3028.3   3036.3   3044.2

 TRANSPORT PROPERTIES (GASES ONLY)
   CONDUCTIVITY IN UNITS OF MILLIWATTS/(CM)(K)

 VISC,MILLIPOISE  0.28792  0.28918  0.29044  0.29170  0.29296  0.29421  0.29547  0.29673

  WITH EQUILIBRIUM REACTIONS

 Cp, KJ/(KG)(K)   16.4422  16.4784  16.5157  16.5543  16.5943  16.6357  16.6785  16.7230
 CONDUCTIVITY      6.8015   6.8511   6.9017   6.9536   7.0068   7.0613   7.1173   7.1748
 PRANDTL NUMBER    0.6960   0.6955   0.6950   0.6944   0.6938   0.6931   0.6924   0.6916

  WITH FROZEN REACTIONS

 Cp, KJ/(KG)(K)   16.2788  16.2995  16.3201  16.3406  16.3611  16.3814  16.4017  16.4219
 CONDUCTIVITY      6.6766   6.7136   6.7507   6.7877   6.8249   6.8620   6.8992   6.9364
 PRANDTL NUMBER    0.7020   0.7021   0.7022   0.7022   0.7023   0.7024   0.7024   0.7025

 MASS FRACTIONS

 *H               0.00007  0.00008  0.00009  0.00010  0.00011  0.00012  0.00013  0.00014
 *H2              0.99993  0.99992  0.99991  0.99990  0.99989  0.99988  0.99987  0.99986

  * THERMODYNAMIC PROPERTIES FITTED TO 20000.K

 NOTE. WEIGHT FRACTION OF FUEL IN TOTAL FUELS AND OF OXIDANT IN TOTAL OXIDANTS









               THERMODYNAMIC EQUILIBRIUM PROPERTIES AT ASSIGNED

                           TEMPERATURE AND PRESSURE

 CASE =                

             REACTANT                    WT FRACTION      ENERGY      TEMP
                                          (SEE NOTE)     KJ/KG-MOL      K  
 FUEL        H2                           1.0000000         0.000      0.000
 OXIDANT     H2                           1.0000000         0.000      0.000

 O/F=    1.00000  %FUEL= 50.000000  R,EQ.RATIO= 0.000000  PHI,EQ.RATIO=-1.000000

 THERMODYNAMIC PROPERTIES

 P, BAR           0.25000  0.25000  0.25000  0.25000  0.25000  0.25000  0.25000  0.25000
 T, K             1550.00  1560.00  1570.00  1580.00  1590.00  1600.00  1610.00  1620.00
 RHO, KG/CU M    3.9104-3 3.8853-3 3.8606-3 3.8361-3 3.8120-3 3.7881-3 3.7646-3 3.7413-3
 H, KJ/KG         18811.7  18974.0  19136.5  19299.4  19462.6  19626.1  19789.9  19954.1
 U, KJ/KG         12418.5  12539.5  12660.8  12782.4  12904.3  13026.5  13149.0  13271.9
 G, KJ/KG       -128388.4-129338.5-130289.8-131242.0-132195.4-133149.7-134105.0-135061.4
 S, KJ/(KG)(K)    94.9678  95.0721  95.1760  95.2794  95.3823  95.4848  95.5869  95.6886

 M, (1/n)           2.016    2.016    2.016    2.016    2.016    2.016    2.016    2.016
 (dLV/dLP)t      -1.00002 -1.00002 -1.00002 -1.00002 -1.00002 -1.00003 -1.00003 -1.00003
 (dLV/dLT)p        1.0006   1.0006   1.0007   1.0008   1.0008   1.0009   1.0010   1.0011
 Cp, KJ/(KG)(K)   16.2114  16.2408  16.2710  16.3019  16.3335  16.3660  16.3994  16.4338
 GAMMAs            1.3417   1.3410   1.3402   1.3394   1.3386   1.3377   1.3369   1.3360
 SON VEL,M/SEC     2928.8   2937.4   2945.9   2954.4   2962.9   2971.3   2979.6   2987.9

 TRANSPORT PROPERTIES (GASES ONLY)
   CONDUCTIVITY IN UNITS OF MILLIWATTS/(CM)(K)

 VISC,MILLIPOISE  0.27907  0.28034  0.28160  0.28287  0.28413  0.28540  0.28666  0.28792

  WITH EQUILIBRIUM REACTIONS

 Cp, KJ/(KG)(K)   16.2114  16.2408  16.2710  16.3019  16.3335  16.3660  16.3994  16.4338
 CONDUCTIVITY      6.4767   6.5200   6.5639   6.6085   6.6539   6.7001   6.7471   6.7950
 PRANDTL NUMBER    0.6985   0.6983   0.6981   0.6978   0.6975   0.6971   0.6968   0.6963

  WITH FROZEN REACTIONS

 Cp, KJ/(KG)(K)   16.1320  16.1532  16.1743  16.1954  16.2163  16.2372  16.2581  16.2788
 CONDUCTIVITY      6.4182   6.4550   6.4919   6.5288   6.5657   6.6026   6.6396   6.6765
 PRANDTL NUMBER    0.7014   0.7015   0.7016   0.7017   0.7018   0.7019   0.7019   0.7020

 MASS FRACTIONS

 *H               0.00003  0.00004  0.00004  0.00004  0.00005  0.00005  0.00006  0.00007
 *H2              0.99997  0.99996  0.99996  0.99996  0.99995  0.99995  0.99994  0.99993

  * THERMODYNAMIC PROPERTIES FITTED TO 20000.K

 NOTE. WEIGHT FRACTION OF FUEL IN TOTAL FUELS AND OF OXIDANT IN TOTAL OXIDANTS









               THERMODYNAMIC EQUILIBRIUM PROPERTIES AT ASSIGNED

                           TEMPERATURE AND PRESSURE

 CASE =                

             REACTANT                    WT FRACTION      ENERGY      TEMP
                                          (SEE NOTE)     KJ/KG-MOL      K  
 FUEL        H2                           1.0000000         0.000      0.000
 OXIDANT     H2                           1.0000000         0.000      0.000

 O/F=    1.00000  %FUEL= 50.000000  R,EQ.RATIO= 0.000000  PHI,EQ.RATIO=-1.000000

 THERMODYNAMIC PROPERTIES

 P, BAR           0.25000  0.25000  0.25000  0.25000  0.25000  0.25000  0.25000  0.28000
 T, K             1630.00  1640.00  1650.00  1660.00  1670.00  1680.00  1690.00  1550.00
 RHO, KG/CU M    3.7183-3 3.6956-3 3.6732-3 3.6510-3 3.6291-3 3.6075-3 3.5861-3 4.3797-3
 H, KJ/KG         20118.6  20283.4  20448.7  20614.3  20780.3  20946.8  21113.6  18811.3
 U, KJ/KG         13395.1  13518.7  13642.6  13766.9  13891.6  14016.8  14142.3  12418.1
 G, KJ/KG       -136018.8-136977.2-137936.6-138897.0-139858.5-140820.9-141784.3-127663.8
 S, KJ/(KG)(K)    95.7898  95.8906  95.9911  96.0912  96.1909  96.2903  96.3893  94.5001

 M, (1/n)           2.016    2.016    2.016    2.016    2.016    2.016    2.016    2.016
 (dLV/dLP)t      -1.00004 -1.00004 -1.00005 -1.00005 -1.00006 -1.00006 -1.00007 -1.00001
 (dLV/dLT)p        1.0012   1.0014   1.0015   1.0016   1.0018   1.0020   1.0022   1.0005
 Cp, KJ/(KG)(K)   16.4692  16.5057  16.5434  16.5823  16.6226  16.6643  16.7076  16.2070
 GAMMAs            1.3352   1.3343   1.3334   1.3325   1.3315   1.3306   1.3296   1.3418
 SON VEL,M/SEC     2996.2   3004.4   3012.5   3020.6   3028.6   3036.6   3044.5   2928.9

 TRANSPORT PROPERTIES (GASES ONLY)
   CONDUCTIVITY IN UNITS OF MILLIWATTS/(CM)(K)

 VISC,MILLIPOISE  0.28918  0.29044  0.29170  0.29296  0.29421  0.29547  0.29672  0.27907

  WITH EQUILIBRIUM REACTIONS

 Cp, KJ/(KG)(K)   16.4692  16.5057  16.5434  16.5823  16.6226  16.6643  16.7076  16.2070
 CONDUCTIVITY      6.8440   6.8939   6.9451   6.9974   7.0510   7.1060   7.1624   6.4735
 PRANDTL NUMBER    0.6959   0.6954   0.6948   0.6942   0.6936   0.6929   0.6922   0.6987

  WITH FROZEN REACTIONS

 Cp, KJ/(KG)(K)   16.2995  16.3201  16.3406  16.3610  16.3814  16.4017  16.4219  16.1320
 CONDUCTIVITY      6.7136   6.7506   6.7877   6.8248   6.8619   6.8991   6.9363   6.4182
 PRANDTL NUMBER    0.7021   0.7022   0.7022   0.7023   0.7024   0.7024   0.7025   0.7014

 MASS FRACTIONS

 *H               0.00007  0.00008  0.00009  0.00010  0.00011  0.00012  0.00013  0.00003
 *H2              0.99993  0.99992  0.99991  0.99990  0.99989  0.99988  0.99987  0.99997

  * THERMODYNAMIC PROPERTIES FITTED TO 20000.K

 NOTE. WEIGHT FRACTION OF FUEL IN TOTAL FUELS AND OF OXIDANT IN TOTAL OXIDANTS









               THERMODYNAMIC EQUILIBRIUM PROPERTIES AT ASSIGNED

                           TEMPERATURE AND PRESSURE

 CASE =                

             REACTANT                    WT FRACTION      ENERGY      TEMP
                                          (SEE NOTE)     KJ/KG-MOL      K  
 FUEL        H2                           1.0000000         0.000      0.000
 OXIDANT     H2                           1.0000000         0.000      0.000

 O/F=    1.00000  %FUEL= 50.000000  R,EQ.RATIO= 0.000000  PHI,EQ.RATIO=-1.000000

 THERMODYNAMIC PROPERTIES

 P, BAR           0.28000  0.28000  0.28000  0.28000  0.28000  0.28000  0.28000  0.28000
 T, K             1560.00  1570.00  1580.00  1590.00  1600.00  1610.00  1620.00  1630.00
 RHO, KG/CU M    4.3516-3 4.3238-3 4.2965-3 4.2694-3 4.2427-3 4.2163-3 4.1903-3 4.1645-3
 H, KJ/KG         18973.5  19136.0  19298.8  19462.0  19625.4  19789.1  19953.2  20117.7
 U, KJ/KG         12539.1  12660.3  12781.9  12903.7  13025.8  13148.3  13271.1  13394.2
 G, KJ/KG       -128609.3-129555.9-130503.5-131452.1-132401.8-133352.5-134304.1-135256.9
 S, KJ/(KG)(K)    94.6044  94.7082  94.8116  94.9145  95.0170  95.1190  95.2206  95.3218

 M, (1/n)           2.016    2.016    2.016    2.016    2.016    2.016    2.016    2.016
 (dLV/dLP)t      -1.00002 -1.00002 -1.00002 -1.00002 -1.00003 -1.00003 -1.00003 -1.00004
 (dLV/dLT)p        1.0006   1.0006   1.0007   1.0008   1.0009   1.0010   1.0011   1.0012
 Cp, KJ/(KG)(K)   16.2360  16.2657  16.2960  16.3271  16.3589  16.3916  16.4252  16.4598
 GAMMAs            1.3411   1.3403   1.3395   1.3387   1.3379   1.3371   1.3362   1.3354
 SON VEL,M/SEC     2937.5   2946.1   2954.6   2963.0   2971.4   2979.8   2988.1   2996.4

 TRANSPORT PROPERTIES (GASES ONLY)
   CONDUCTIVITY IN UNITS OF MILLIWATTS/(CM)(K)

 VISC,MILLIPOISE  0.28034  0.28160  0.28287  0.28413  0.28540  0.28666  0.28792  0.28918

  WITH EQUILIBRIUM REACTIONS

 Cp, KJ/(KG)(K)   16.2360  16.2657  16.2960  16.3271  16.3589  16.3916  16.4252  16.4598
 CONDUCTIVITY      6.5164   6.5599   6.6041   6.6490   6.6947   6.7411   6.7885   6.8367
 PRANDTL NUMBER    0.6985   0.6982   0.6980   0.6977   0.6974   0.6970   0.6966   0.6962

  WITH FROZEN REACTIONS

 Cp, KJ/(KG)(K)   16.1532  16.1743  16.1954  16.2163  16.2372  16.2581  16.2788  16.2995
 CONDUCTIVITY      6.4550   6.4919   6.5287   6.5656   6.6026   6.6395   6.6765   6.7135
 PRANDTL NUMBER    0.7015   0.7016   0.7017   0.7018   0.7019   0.7019   0.7020   0.7021

 MASS FRACTIONS

 *H               0.00003  0.00004  0.00004  0.00005  0.00005  0.00006  0.00006  0.00007
 *H2              0.99997  0.99996  0.99996  0.99995  0.99995  0.99994  0.99994  0.99993

  * THERMODYNAMIC PROPERTIES FITTED TO 20000.K

 NOTE. WEIGHT FRACTION OF FUEL IN TOTAL FUELS AND OF OXIDANT IN TOTAL OXIDANTS









               THERMODYNAMIC EQUILIBRIUM PROPERTIES AT ASSIGNED

                           TEMPERATURE AND PRESSURE

 CASE =                

             REACTANT                    WT FRACTION      ENERGY      TEMP
                                          (SEE NOTE)     KJ/KG-MOL      K  
 FUEL        H2                           1.0000000         0.000      0.000
 OXIDANT     H2                           1.0000000         0.000      0.000

 O/F=    1.00000  %FUEL= 50.000000  R,EQ.RATIO= 0.000000  PHI,EQ.RATIO=-1.000000

 THERMODYNAMIC PROPERTIES

 P, BAR           0.28000  0.28000  0.28000  0.28000  0.28000  0.28000  0.31000  0.31000
 T, K             1640.00  1650.00  1660.00  1670.00  1680.00  1690.00  1550.00  1560.00
 RHO, KG/CU M    4.1391-3 4.1140-3 4.0892-3 4.0647-3 4.0404-3 4.0165-3 4.8489-3 4.8178-3
 H, KJ/KG         20282.4  20447.6  20613.1  20779.0  20945.3  21112.0  18811.0  18973.2
 U, KJ/KG         13517.7  13641.5  13765.7  13890.3  14015.3  14140.7  12417.8  12538.7
 G, KJ/KG       -136210.6-137165.3-138121.0-139077.8-140035.5-140994.2-127013.1-127954.4
 S, KJ/(KG)(K)    95.4226  95.5230  95.6230  95.7226  95.8219  95.9208  94.0801  94.1843

 M, (1/n)           2.016    2.016    2.016    2.016    2.016    2.016    2.016    2.016
 (dLV/dLP)t      -1.00004 -1.00004 -1.00005 -1.00005 -1.00006 -1.00006 -1.00001 -1.00002
 (dLV/dLT)p        1.0013   1.0014   1.0016   1.0017   1.0019   1.0020   1.0005   1.0005
 Cp, KJ/(KG)(K)   16.4954  16.5322  16.5701  16.6093  16.6498  16.6918  16.2033  16.2319
 GAMMAs            1.3345   1.3336   1.3327   1.3318   1.3309   1.3299   1.3419   1.3411
 SON VEL,M/SEC     3004.6   3012.8   3020.9   3028.9   3036.9   3044.9   2929.0   2937.6

 TRANSPORT PROPERTIES (GASES ONLY)
   CONDUCTIVITY IN UNITS OF MILLIWATTS/(CM)(K)

 VISC,MILLIPOISE  0.29044  0.29170  0.29295  0.29421  0.29547  0.29672  0.27907  0.28034

  WITH EQUILIBRIUM REACTIONS

 Cp, KJ/(KG)(K)   16.4954  16.5322  16.5701  16.6093  16.6498  16.6918  16.2033  16.2319
 CONDUCTIVITY      6.8860   6.9363   6.9878   7.0405   7.0945   7.1499   6.4707   6.5133
 PRANDTL NUMBER    0.6957   0.6952   0.6947   0.6941   0.6934   0.6927   0.6988   0.6986

  WITH FROZEN REACTIONS

 Cp, KJ/(KG)(K)   16.3201  16.3406  16.3610  16.3814  16.4017  16.4219  16.1320  16.1532
 CONDUCTIVITY      6.7506   6.7876   6.8247   6.8618   6.8990   6.9362   6.4182   6.4550
 PRANDTL NUMBER    0.7022   0.7022   0.7023   0.7024   0.7024   0.7025   0.7014   0.7015

 MASS FRACTIONS

 *H               0.00008  0.00009  0.00009  0.00010  0.00012  0.00013  0.00003  0.00003
 *H2              0.99992  0.99991  0.99991  0.99990  0.99988  0.99987  0.99997  0.99997

  * THERMODYNAMIC PROPERTIES FITTED TO 20000.K

 NOTE. WEIGHT FRACTION OF FUEL IN TOTAL FUELS AND OF OXIDANT IN TOTAL OXIDANTS









               THERMODYNAMIC EQUILIBRIUM PROPERTIES AT ASSIGNED

                           TEMPERATURE AND PRESSURE

 CASE =                

             REACTANT                    WT FRACTION      ENERGY      TEMP
                                          (SEE NOTE)     KJ/KG-MOL      K  
 FUEL        H2                           1.0000000         0.000      0.000
 OXIDANT     H2                           1.0000000         0.000      0.000

 O/F=    1.00000  %FUEL= 50.000000  R,EQ.RATIO= 0.000000  PHI,EQ.RATIO=-1.000000

 THERMODYNAMIC PROPERTIES

 P, BAR           0.31000  0.31000  0.31000  0.31000  0.31000  0.31000  0.31000  0.31000
 T, K             1570.00  1580.00  1590.00  1600.00  1610.00  1620.00  1630.00  1640.00
 RHO, KG/CU M    4.7871-3 4.7568-3 4.7269-3 4.6973-3 4.6681-3 4.6393-3 4.6108-3 4.5826-3
 H, KJ/KG         19135.6  19298.4  19461.5  19624.8  19788.5  19952.5  20116.9  20281.6
 U, KJ/KG         12659.9  12781.4  12903.2  13025.3  13147.7  13270.4  13393.5  13516.9
 G, KJ/KG       -128896.8-129840.2-130784.6-131730.1-132676.5-133624.0-134572.5-135522.1
 S, KJ/(KG)(K)    94.2882  94.3915  94.4944  94.5968  94.6988  94.8003  94.9015  95.0022

 M, (1/n)           2.016    2.016    2.016    2.016    2.016    2.016    2.016    2.016
 (dLV/dLP)t      -1.00002 -1.00002 -1.00002 -1.00002 -1.00003 -1.00003 -1.00003 -1.00004
 (dLV/dLT)p        1.0006   1.0007   1.0007   1.0008   1.0009   1.0010   1.0011   1.0012
 Cp, KJ/(KG)(K)   16.2611  16.2910  16.3216  16.3529  16.3850  16.4179  16.4518  16.4867
 GAMMAs            1.3404   1.3396   1.3388   1.3380   1.3372   1.3364   1.3355   1.3347
 SON VEL,M/SEC     2946.2   2954.7   2963.2   2971.6   2980.0   2988.3   2996.6   3004.8

 TRANSPORT PROPERTIES (GASES ONLY)
   CONDUCTIVITY IN UNITS OF MILLIWATTS/(CM)(K)

 VISC,MILLIPOISE  0.28160  0.28287  0.28413  0.28540  0.28666  0.28792  0.28918  0.29044

  WITH EQUILIBRIUM REACTIONS

 Cp, KJ/(KG)(K)   16.2611  16.2910  16.3216  16.3529  16.3850  16.4179  16.4518  16.4867
 CONDUCTIVITY      6.5565   6.6003   6.6448   6.6901   6.7360   6.7829   6.8306   6.8792
 PRANDTL NUMBER    0.6984   0.6982   0.6979   0.6976   0.6973   0.6969   0.6965   0.6961

  WITH FROZEN REACTIONS

 Cp, KJ/(KG)(K)   16.1743  16.1953  16.2163  16.2372  16.2580  16.2788  16.2995  16.3201
 CONDUCTIVITY      6.4918   6.5287   6.5656   6.6025   6.6395   6.6765   6.7135   6.7505
 PRANDTL NUMBER    0.7016   0.7017   0.7018   0.7019   0.7019   0.7020   0.7021   0.7022

 MASS FRACTIONS

 *H               0.00004  0.00004  0.00004  0.00005  0.00005  0.00006  0.00007  0.00007
 *H2              0.99996  0.99996  0.99996  0.99995  0.99995  0.99994  0.99993  0.99993

  * THERMODYNAMIC PROPERTIES FITTED TO 20000.K

 NOTE. WEIGHT FRACTION OF FUEL IN TOTAL FUELS AND OF OXIDANT IN TOTAL OXIDANTS









               THERMODYNAMIC EQUILIBRIUM PROPERTIES AT ASSIGNED

                           TEMPERATURE AND PRESSURE

 CASE =                

             REACTANT                    WT FRACTION      ENERGY      TEMP
                                          (SEE NOTE)     KJ/KG-MOL      K  
 FUEL        H2                           1.0000000         0.000      0.000
 OXIDANT     H2                           1.0000000         0.000      0.000

 O/F=    1.00000  %FUEL= 50.000000  R,EQ.RATIO= 0.000000  PHI,EQ.RATIO=-1.000000

 THERMODYNAMIC PROPERTIES

 P, BAR           0.31000  0.31000  0.31000  0.31000  0.31000  0.35000  0.35000  0.35000
 T, K             1650.00  1660.00  1670.00  1680.00  1690.00  1550.00  1560.00  1570.00
 RHO, KG/CU M    4.5548-3 4.5273-3 4.5002-3 4.4733-3 4.4468-3 5.4746-3 5.4395-3 5.4048-3
 H, KJ/KG         20446.6  20612.0  20777.8  20944.0  21110.6  18810.6  18972.7  19135.2
 U, KJ/KG         13640.6  13764.7  13889.2  14014.1  14139.3  12417.5  12538.3  12659.5
 G, KJ/KG       -136472.6-137424.1-138376.6-139330.1-140284.7-126237.2-127173.5-128110.9
 S, KJ/(KG)(K)    95.1025  95.2025  95.3021  95.4013  95.5001  93.5793  93.6835  93.7873

 M, (1/n)           2.016    2.016    2.016    2.016    2.016    2.016    2.016    2.016
 (dLV/dLP)t      -1.00004 -1.00005 -1.00005 -1.00005 -1.00006 -1.00001 -1.00001 -1.00002
 (dLV/dLT)p        1.0013   1.0015   1.0016   1.0018   1.0019   1.0005   1.0005   1.0006
 Cp, KJ/(KG)(K)   16.5226  16.5597  16.5980  16.6375  16.6784  16.1991  16.2272  16.2560
 GAMMAs            1.3338   1.3329   1.3320   1.3311   1.3302   1.3420   1.3413   1.3405
 SON VEL,M/SEC     3013.0   3021.1   3029.2   3037.2   3045.2   2929.1   2937.7   2946.3

 TRANSPORT PROPERTIES (GASES ONLY)
   CONDUCTIVITY IN UNITS OF MILLIWATTS/(CM)(K)

 VISC,MILLIPOISE  0.29170  0.29295  0.29421  0.29547  0.29672  0.27907  0.28034  0.28160

  WITH EQUILIBRIUM REACTIONS

 Cp, KJ/(KG)(K)   16.5226  16.5597  16.5980  16.6375  16.6784  16.1991  16.2272  16.2560
 CONDUCTIVITY      6.9289   6.9797   7.0316   7.0847   7.1392   6.4676   6.5099   6.5527
 PRANDTL NUMBER    0.6956   0.6951   0.6945   0.6939   0.6932   0.6990   0.6988   0.6986

  WITH FROZEN REACTIONS

 Cp, KJ/(KG)(K)   16.3406  16.3610  16.3814  16.4016  16.4218  16.1320  16.1532  16.1743
 CONDUCTIVITY      6.7876   6.8247   6.8618   6.8989   6.9361   6.4182   6.4550   6.4918
 PRANDTL NUMBER    0.7022   0.7023   0.7024   0.7024   0.7025   0.7014   0.7015   0.7016

 MASS FRACTIONS

 *H               0.00008  0.00009  0.00010  0.00011  0.00012  0.00003  0.00003  0.00003
 *H2              0.99992  0.99991  0.99990  0.99989  0.99988  0.99997  0.99997  0.99997

  * THERMODYNAMIC PROPERTIES FITTED TO 20000.K

 NOTE. WEIGHT FRACTION OF FUEL IN TOTAL FUELS AND OF OXIDANT IN TOTAL OXIDANTS









               THERMODYNAMIC EQUILIBRIUM PROPERTIES AT ASSIGNED

                           TEMPERATURE AND PRESSURE

 CASE =                

             REACTANT                    WT FRACTION      ENERGY      TEMP
                                          (SEE NOTE)     KJ/KG-MOL      K  
 FUEL        H2                           1.0000000         0.000      0.000
 OXIDANT     H2                           1.0000000         0.000      0.000

 O/F=    1.00000  %FUEL= 50.000000  R,EQ.RATIO= 0.000000  PHI,EQ.RATIO=-1.000000

 THERMODYNAMIC PROPERTIES

 P, BAR           0.35000  0.35000  0.35000  0.35000  0.35000  0.35000  0.35000  0.35000
 T, K             1580.00  1590.00  1600.00  1610.00  1620.00  1630.00  1640.00  1650.00
 RHO, KG/CU M    5.3706-3 5.3368-3 5.3034-3 5.2705-3 5.2379-3 5.2057-3 5.1739-3 5.1426-3
 H, KJ/KG         19297.9  19460.9  19624.2  19787.8  19951.7  20116.0  20280.6  20445.5
 U, KJ/KG         12780.9  12902.6  13024.7  13147.0  13269.7  13392.6  13515.9  13639.6
 G, KJ/KG       -129049.3-129988.7-130929.1-131870.6-132813.1-133756.6-134701.1-135646.6
 S, KJ/(KG)(K)    93.8906  93.9934  94.0958  94.1978  94.2993  94.4004  94.5010  94.6013

 M, (1/n)           2.016    2.016    2.016    2.016    2.016    2.016    2.016    2.016
 (dLV/dLP)t      -1.00002 -1.00002 -1.00002 -1.00003 -1.00003 -1.00003 -1.00003 -1.00004
 (dLV/dLT)p        1.0006   1.0007   1.0008   1.0009   1.0009   1.0010   1.0011   1.0013
 Cp, KJ/(KG)(K)   16.2854  16.3154  16.3460  16.3775  16.4097  16.4429  16.4769  16.5119
 GAMMAs            1.3397   1.3389   1.3382   1.3374   1.3366   1.3357   1.3349   1.3340
 SON VEL,M/SEC     2954.8   2963.3   2971.7   2980.1   2988.5   2996.8   3005.0   3013.2

 TRANSPORT PROPERTIES (GASES ONLY)
   CONDUCTIVITY IN UNITS OF MILLIWATTS/(CM)(K)

 VISC,MILLIPOISE  0.28287  0.28413  0.28539  0.28666  0.28792  0.28918  0.29044  0.29169

  WITH EQUILIBRIUM REACTIONS

 Cp, KJ/(KG)(K)   16.2854  16.3154  16.3460  16.3775  16.4097  16.4429  16.4769  16.5119
 CONDUCTIVITY      6.5961   6.6401   6.6849   6.7303   6.7766   6.8236   6.8716   6.9205
 PRANDTL NUMBER    0.6984   0.6981   0.6979   0.6975   0.6972   0.6968   0.6964   0.6960

  WITH FROZEN REACTIONS

 Cp, KJ/(KG)(K)   16.1953  16.2163  16.2372  16.2580  16.2788  16.2994  16.3200  16.3405
 CONDUCTIVITY      6.5287   6.5656   6.6025   6.6394   6.6764   6.7134   6.7505   6.7875
 PRANDTL NUMBER    0.7017   0.7018   0.7019   0.7019   0.7020   0.7021   0.7022   0.7022

 MASS FRACTIONS

 *H               0.00004  0.00004  0.00005  0.00005  0.00006  0.00006  0.00007  0.00008
 *H2              0.99996  0.99996  0.99995  0.99995  0.99994  0.99994  0.99993  0.99992

  * THERMODYNAMIC PROPERTIES FITTED TO 20000.K

 NOTE. WEIGHT FRACTION OF FUEL IN TOTAL FUELS AND OF OXIDANT IN TOTAL OXIDANTS









               THERMODYNAMIC EQUILIBRIUM PROPERTIES AT ASSIGNED

                           TEMPERATURE AND PRESSURE

 CASE =                

             REACTANT                    WT FRACTION      ENERGY      TEMP
                                          (SEE NOTE)     KJ/KG-MOL      K  
 FUEL        H2                           1.0000000         0.000      0.000
 OXIDANT     H2                           1.0000000         0.000      0.000

 O/F=    1.00000  %FUEL= 50.000000  R,EQ.RATIO= 0.000000  PHI,EQ.RATIO=-1.000000

 THERMODYNAMIC PROPERTIES

 P, BAR           0.35000  0.35000  0.35000  0.35000  0.39000  0.39000  0.39000  0.39000
 T, K             1660.00  1670.00  1680.00  1690.00  1550.00  1560.00  1570.00  1580.00
 RHO, KG/CU M    5.1115-3 5.0809-3 5.0506-3 5.0207-3 6.1003-3 6.0612-3 6.0225-3 5.9844-3
 H, KJ/KG         20610.8  20776.5  20942.5  21109.0  18810.3  18972.4  19134.8  19297.4
 U, KJ/KG         13763.6  13887.9  14012.7  14137.8  12417.2  12538.0  12659.1  12780.5
 G, KJ/KG       -136593.1-137540.6-138489.1-139438.6-125545.4-126477.2-127410.1-128344.0
 S, KJ/(KG)(K)    94.7012  94.8007  94.8998  94.9986  93.1327  93.2369  93.3407  93.4440

 M, (1/n)           2.016    2.016    2.016    2.016    2.016    2.016    2.016    2.016
 (dLV/dLP)t      -1.00004 -1.00005 -1.00005 -1.00006 -1.00001 -1.00001 -1.00002 -1.00002
 (dLV/dLT)p        1.0014   1.0015   1.0017   1.0018   1.0004   1.0005   1.0005   1.0006
 Cp, KJ/(KG)(K)   16.5480  16.5852  16.6236  16.6632  16.1955  16.2233  16.2517  16.2806
 GAMMAs            1.3332   1.3323   1.3314   1.3305   1.3421   1.3413   1.3406   1.3398
 SON VEL,M/SEC     3021.4   3029.5   3037.5   3045.5   2929.2   2937.8   2946.4   2954.9

 TRANSPORT PROPERTIES (GASES ONLY)
   CONDUCTIVITY IN UNITS OF MILLIWATTS/(CM)(K)

 VISC,MILLIPOISE  0.29295  0.29421  0.29546  0.29672  0.27907  0.28033  0.28160  0.28287

  WITH EQUILIBRIUM REACTIONS

 Cp, KJ/(KG)(K)   16.5480  16.5852  16.6236  16.6632  16.1955  16.2233  16.2517  16.2806
 CONDUCTIVITY      6.9705   7.0215   7.0737   7.1272   6.4650   6.5070   6.5495   6.5925
 PRANDTL NUMBER    0.6955   0.6949   0.6944   0.6937   0.6991   0.6989   0.6988   0.6986

  WITH FROZEN REACTIONS

 Cp, KJ/(KG)(K)   16.3610  16.3813  16.4016  16.4218  16.1320  16.1532  16.1743  16.1953
 CONDUCTIVITY      6.8246   6.8617   6.8989   6.9360   6.4182   6.4550   6.4918   6.5287
 PRANDTL NUMBER    0.7023   0.7024   0.7024   0.7025   0.7014   0.7015   0.7016   0.7017

 MASS FRACTIONS

 *H               0.00008  0.00009  0.00010  0.00011  0.00003  0.00003  0.00003  0.00004
 *H2              0.99992  0.99991  0.99990  0.99989  0.99997  0.99997  0.99997  0.99996

  * THERMODYNAMIC PROPERTIES FITTED TO 20000.K

 NOTE. WEIGHT FRACTION OF FUEL IN TOTAL FUELS AND OF OXIDANT IN TOTAL OXIDANTS









               THERMODYNAMIC EQUILIBRIUM PROPERTIES AT ASSIGNED

                           TEMPERATURE AND PRESSURE

 CASE =                

             REACTANT                    WT FRACTION      ENERGY      TEMP
                                          (SEE NOTE)     KJ/KG-MOL      K  
 FUEL        H2                           1.0000000         0.000      0.000
 OXIDANT     H2                           1.0000000         0.000      0.000

 O/F=    1.00000  %FUEL= 50.000000  R,EQ.RATIO= 0.000000  PHI,EQ.RATIO=-1.000000

 THERMODYNAMIC PROPERTIES

 P, BAR           0.39000  0.39000  0.39000  0.39000  0.39000  0.39000  0.39000  0.39000
 T, K             1590.00  1600.00  1610.00  1620.00  1630.00  1640.00  1650.00  1660.00
 RHO, KG/CU M    5.9467-3 5.9095-3 5.8728-3 5.8365-3 5.8007-3 5.7653-3 5.7303-3 5.6957-3
 H, KJ/KG         19460.4  19623.6  19787.2  19951.1  20115.3  20279.8  20444.6  20609.8
 U, KJ/KG         12902.2  13024.1  13146.4  13269.0  13391.9  13515.1  13638.7  13762.6
 G, KJ/KG       -129279.0-130215.0-131152.0-132090.0-133029.0-133969.1-134910.1-135852.1
 S, KJ/(KG)(K)    93.5468  93.6491  93.7510  93.8525  93.9535  94.0542  94.1544  94.2542

 M, (1/n)           2.016    2.016    2.016    2.016    2.016    2.016    2.016    2.016
 (dLV/dLP)t      -1.00002 -1.00002 -1.00002 -1.00003 -1.00003 -1.00003 -1.00004 -1.00004
 (dLV/dLT)p        1.0007   1.0007   1.0008   1.0009   1.0010   1.0011   1.0012   1.0013
 Cp, KJ/(KG)(K)   16.3101  16.3403  16.3712  16.4028  16.4353  16.4686  16.5029  16.5381
 GAMMAs            1.3391   1.3383   1.3375   1.3367   1.3359   1.3351   1.3342   1.3334
 SON VEL,M/SEC     2963.4   2971.9   2980.3   2988.6   2996.9   3005.2   3013.4   3021.6

 TRANSPORT PROPERTIES (GASES ONLY)
   CONDUCTIVITY IN UNITS OF MILLIWATTS/(CM)(K)

 VISC,MILLIPOISE  0.28413  0.28539  0.28666  0.28792  0.28918  0.29044  0.29169  0.29295

  WITH EQUILIBRIUM REACTIONS

 Cp, KJ/(KG)(K)   16.3101  16.3403  16.3712  16.4028  16.4353  16.4686  16.5029  16.5381
 CONDUCTIVITY      6.6362   6.6805   6.7255   6.7712   6.8178   6.8652   6.9135   6.9627
 PRANDTL NUMBER    0.6983   0.6981   0.6978   0.6975   0.6971   0.6967   0.6963   0.6958

  WITH FROZEN REACTIONS

 Cp, KJ/(KG)(K)   16.2163  16.2372  16.2580  16.2788  16.2994  16.3200  16.3405  16.3610
 CONDUCTIVITY      6.5656   6.6025   6.6394   6.6764   6.7134   6.7504   6.7875   6.8245
 PRANDTL NUMBER    0.7018   0.7019   0.7019   0.7020   0.7021   0.7022   0.7022   0.7023

 MASS FRACTIONS

 *H               0.00004  0.00004  0.00005  0.00005  0.00006  0.00007  0.00007  0.00008
 *H2              0.99996  0.99996  0.99995  0.99995  0.99994  0.99993  0.99993  0.99992

  * THERMODYNAMIC PROPERTIES FITTED TO 20000.K

 NOTE. WEIGHT FRACTION OF FUEL IN TOTAL FUELS AND OF OXIDANT IN TOTAL OXIDANTS









               THERMODYNAMIC EQUILIBRIUM PROPERTIES AT ASSIGNED

                           TEMPERATURE AND PRESSURE

 CASE =                

             REACTANT                    WT FRACTION      ENERGY      TEMP
                                          (SEE NOTE)     KJ/KG-MOL      K  
 FUEL        H2                           1.0000000         0.000      0.000
 OXIDANT     H2                           1.0000000         0.000      0.000

 O/F=    1.00000  %FUEL= 50.000000  R,EQ.RATIO= 0.000000  PHI,EQ.RATIO=-1.000000

 THERMODYNAMIC PROPERTIES

 P, BAR           0.39000  0.39000  0.39000  0.44000  0.44000  0.44000  0.44000  0.44000
 T, K             1670.00  1680.00  1690.00  1550.00  1560.00  1570.00  1580.00  1590.00
 RHO, KG/CU M    5.6616-3 5.6278-3 5.5945-3 6.8824-3 6.8382-3 6.7947-3 6.7516-3 6.7092-3
 H, KJ/KG         20775.4  20941.3  21107.6  18810.0  18972.0  19134.4  19297.0  19459.9
 U, KJ/KG         13886.9  14011.5  14136.5  12416.8  12537.6  12658.7  12780.0  12901.7
 G, KJ/KG       -136795.2-137739.2-138684.2-124774.2-125701.1-126629.0-127557.9-128487.9
 S, KJ/(KG)(K)    94.3536  94.4527  94.5514  92.6350  92.7392  92.8429  92.9461  93.0489

 M, (1/n)           2.016    2.016    2.016    2.016    2.016    2.016    2.016    2.016
 (dLV/dLP)t      -1.00004 -1.00005 -1.00005 -1.00001 -1.00001 -1.00001 -1.00002 -1.00002
 (dLV/dLT)p        1.0014   1.0016   1.0017   1.0004   1.0005   1.0005   1.0006   1.0006
 Cp, KJ/(KG)(K)   16.5744  16.6119  16.6505  16.1918  16.2192  16.2472  16.2756  16.3046
 GAMMAs            1.3325   1.3316   1.3307   1.3422   1.3414   1.3407   1.3399   1.3392
 SON VEL,M/SEC     3029.7   3037.8   3045.8   2929.3   2937.9   2946.5   2955.0   2963.5

 TRANSPORT PROPERTIES (GASES ONLY)
   CONDUCTIVITY IN UNITS OF MILLIWATTS/(CM)(K)

 VISC,MILLIPOISE  0.29421  0.29546  0.29672  0.27907  0.28033  0.28160  0.28287  0.28413

  WITH EQUILIBRIUM REACTIONS

 Cp, KJ/(KG)(K)   16.5744  16.6119  16.6505  16.1918  16.2192  16.2472  16.2756  16.3046
 CONDUCTIVITY      7.0130   7.0644   7.1170   6.4622   6.5039   6.5461   6.5888   6.6320
 PRANDTL NUMBER    0.6953   0.6948   0.6942   0.6992   0.6991   0.6989   0.6987   0.6985

  WITH FROZEN REACTIONS

 Cp, KJ/(KG)(K)   16.3813  16.4016  16.4218  16.1320  16.1532  16.1743  16.1953  16.2163
 CONDUCTIVITY      6.8616   6.8988   6.9359   6.4181   6.4549   6.4918   6.5286   6.5655
 PRANDTL NUMBER    0.7024   0.7024   0.7025   0.7014   0.7015   0.7016   0.7017   0.7018

 MASS FRACTIONS

 *H               0.00009  0.00010  0.00011  0.00002  0.00003  0.00003  0.00003  0.00004
 *H2              0.99991  0.99990  0.99989  0.99998  0.99997  0.99997  0.99997  0.99996

  * THERMODYNAMIC PROPERTIES FITTED TO 20000.K

 NOTE. WEIGHT FRACTION OF FUEL IN TOTAL FUELS AND OF OXIDANT IN TOTAL OXIDANTS









               THERMODYNAMIC EQUILIBRIUM PROPERTIES AT ASSIGNED

                           TEMPERATURE AND PRESSURE

 CASE =                

             REACTANT                    WT FRACTION      ENERGY      TEMP
                                          (SEE NOTE)     KJ/KG-MOL      K  
 FUEL        H2                           1.0000000         0.000      0.000
 OXIDANT     H2                           1.0000000         0.000      0.000

 O/F=    1.00000  %FUEL= 50.000000  R,EQ.RATIO= 0.000000  PHI,EQ.RATIO=-1.000000

 THERMODYNAMIC PROPERTIES

 P, BAR           0.44000  0.44000  0.44000  0.44000  0.44000  0.44000  0.44000  0.44000
 T, K             1600.00  1610.00  1620.00  1630.00  1640.00  1650.00  1660.00  1670.00
 RHO, KG/CU M    6.6672-3 6.6257-3 6.5848-3 6.5444-3 6.5044-3 6.4650-3 6.4260-3 6.3875-3
 H, KJ/KG         19623.1  19786.6  19950.4  20114.5  20278.9  20443.7  20608.8  20774.2
 U, KJ/KG         13023.6  13145.8  13268.3  13391.2  13514.3  13637.8  13761.6  13885.7
 G, KJ/KG       -129418.9-130350.9-131283.9-132218.0-133153.1-134089.1-135026.2-135964.2
 S, KJ/(KG)(K)    93.1512  93.2531  93.3545  93.4555  93.5561  93.6562  93.7560  93.8554

 M, (1/n)           2.016    2.016    2.016    2.016    2.016    2.016    2.016    2.016
 (dLV/dLP)t      -1.00002 -1.00002 -1.00003 -1.00003 -1.00003 -1.00003 -1.00004 -1.00004
 (dLV/dLT)p        1.0007   1.0008   1.0008   1.0009   1.0010   1.0011   1.0012   1.0014
 Cp, KJ/(KG)(K)   16.3343  16.3646  16.3956  16.4273  16.4599  16.4933  16.5277  16.5631
 GAMMAs            1.3384   1.3376   1.3369   1.3361   1.3353   1.3344   1.3336   1.3328
 SON VEL,M/SEC     2972.0   2980.4   2988.8   2997.1   3005.4   3013.6   3021.8   3030.0

 TRANSPORT PROPERTIES (GASES ONLY)
   CONDUCTIVITY IN UNITS OF MILLIWATTS/(CM)(K)

 VISC,MILLIPOISE  0.28539  0.28665  0.28792  0.28918  0.29043  0.29169  0.29295  0.29420

  WITH EQUILIBRIUM REACTIONS

 Cp, KJ/(KG)(K)   16.3343  16.3646  16.3956  16.4273  16.4599  16.4933  16.5277  16.5631
 CONDUCTIVITY      6.6759   6.7204   6.7657   6.8116   6.8584   6.9060   6.9546   7.0041
 PRANDTL NUMBER    0.6983   0.6980   0.6977   0.6974   0.6970   0.6966   0.6962   0.6957

  WITH FROZEN REACTIONS

 Cp, KJ/(KG)(K)   16.2372  16.2580  16.2787  16.2994  16.3200  16.3405  16.3609  16.3813
 CONDUCTIVITY      6.6024   6.6394   6.6763   6.7133   6.7504   6.7874   6.8245   6.8616
 PRANDTL NUMBER    0.7019   0.7019   0.7020   0.7021   0.7022   0.7022   0.7023   0.7024

 MASS FRACTIONS

 *H               0.00004  0.00005  0.00005  0.00006  0.00006  0.00007  0.00008  0.00008
 *H2              0.99996  0.99995  0.99995  0.99994  0.99994  0.99993  0.99992  0.99992

  * THERMODYNAMIC PROPERTIES FITTED TO 20000.K

 NOTE. WEIGHT FRACTION OF FUEL IN TOTAL FUELS AND OF OXIDANT IN TOTAL OXIDANTS









               THERMODYNAMIC EQUILIBRIUM PROPERTIES AT ASSIGNED

                           TEMPERATURE AND PRESSURE

 CASE =                

             REACTANT                    WT FRACTION      ENERGY      TEMP
                                          (SEE NOTE)     KJ/KG-MOL      K  
 FUEL        H2                           1.0000000         0.000      0.000
 OXIDANT     H2                           1.0000000         0.000      0.000

 O/F=    1.00000  %FUEL= 50.000000  R,EQ.RATIO= 0.000000  PHI,EQ.RATIO=-1.000000

 THERMODYNAMIC PROPERTIES

 P, BAR           0.44000  0.44000  0.49000  0.49000  0.49000  0.49000  0.49000  0.49000
 T, K             1680.00  1690.00  1550.00  1560.00  1570.00  1580.00  1590.00  1600.00
 RHO, KG/CU M    6.3494-3 6.3118-3 7.6645-3 7.6153-3 7.5668-3 7.5189-3 7.4716-3 7.4248-3
 H, KJ/KG         20940.0  21106.2  18809.7  18971.7  19134.0  19296.6  19459.4  19622.6
 U, KJ/KG         14010.2  14135.1  12416.6  12537.3  12658.4  12779.7  12901.2  13023.1
 G, KJ/KG       -136903.3-137843.3-124086.1-125008.5-125932.0-126856.5-127782.0-128708.6
 S, KJ/(KG)(K)    93.9544  94.0530  92.1908  92.2950  92.3987  92.5019  92.6047  92.7070

 M, (1/n)           2.016    2.016    2.016    2.016    2.016    2.016    2.016    2.016
 (dLV/dLP)t      -1.00005 -1.00005 -1.00001 -1.00001 -1.00001 -1.00002 -1.00002 -1.00002
 (dLV/dLT)p        1.0015   1.0016   1.0004   1.0004   1.0005   1.0005   1.0006   1.0007
 Cp, KJ/(KG)(K)   16.5995  16.6371  16.1887  16.2158  16.2433  16.2714  16.3000  16.3292
 GAMMAs            1.3319   1.3310   1.3422   1.3415   1.3408   1.3400   1.3393   1.3385
 SON VEL,M/SEC     3038.0   3046.1   2929.3   2938.0   2946.6   2955.1   2963.7   2972.1

 TRANSPORT PROPERTIES (GASES ONLY)
   CONDUCTIVITY IN UNITS OF MILLIWATTS/(CM)(K)

 VISC,MILLIPOISE  0.29546  0.29671  0.27907  0.28033  0.28160  0.28287  0.28413  0.28539

  WITH EQUILIBRIUM REACTIONS

 Cp, KJ/(KG)(K)   16.5995  16.6371  16.1887  16.2158  16.2433  16.2714  16.3000  16.3292
 CONDUCTIVITY      7.0547   7.1063   6.4599   6.5013   6.5432   6.5856   6.6285   6.6720
 PRANDTL NUMBER    0.6952   0.6947   0.6993   0.6992   0.6991   0.6989   0.6987   0.6985

  WITH FROZEN REACTIONS

 Cp, KJ/(KG)(K)   16.4016  16.4218  16.1320  16.1532  16.1743  16.1953  16.2163  16.2372
 CONDUCTIVITY      6.8987   6.9359   6.4181   6.4549   6.4918   6.5286   6.5655   6.6024
 PRANDTL NUMBER    0.7025   0.7025   0.7014   0.7015   0.7016   0.7017   0.7018   0.7019

 MASS FRACTIONS

 *H               0.00009  0.00010  0.00002  0.00003  0.00003  0.00003  0.00003  0.00004
 *H2              0.99991  0.99990  0.99998  0.99997  0.99997  0.99997  0.99997  0.99996

  * THERMODYNAMIC PROPERTIES FITTED TO 20000.K

 NOTE. WEIGHT FRACTION OF FUEL IN TOTAL FUELS AND OF OXIDANT IN TOTAL OXIDANTS









               THERMODYNAMIC EQUILIBRIUM PROPERTIES AT ASSIGNED

                           TEMPERATURE AND PRESSURE

 CASE =                

             REACTANT                    WT FRACTION      ENERGY      TEMP
                                          (SEE NOTE)     KJ/KG-MOL      K  
 FUEL        H2                           1.0000000         0.000      0.000
 OXIDANT     H2                           1.0000000         0.000      0.000

 O/F=    1.00000  %FUEL= 50.000000  R,EQ.RATIO= 0.000000  PHI,EQ.RATIO=-1.000000

 THERMODYNAMIC PROPERTIES

 P, BAR           0.49000  0.49000  0.49000  0.49000  0.49000  0.49000  0.49000  0.49000
 T, K             1610.00  1620.00  1630.00  1640.00  1650.00  1660.00  1670.00  1680.00
 RHO, KG/CU M    7.3787-3 7.3331-3 7.2881-3 7.2436-3 7.1997-3 7.1562-3 7.1133-3 7.0709-3
 H, KJ/KG         19786.0  19949.8  20113.8  20278.2  20442.9  20607.9  20773.3  20939.0
 U, KJ/KG         13145.3  13267.7  13390.5  13513.6  13637.0  13760.7  13884.8  14009.2
 G, KJ/KG       -129636.2-130564.8-131494.4-132425.0-133356.6-134289.2-135222.8-136157.4
 S, KJ/(KG)(K)    92.8088  92.9102  93.0112  93.1117  93.2118  93.3115  93.4108  93.5098

 M, (1/n)           2.016    2.016    2.016    2.016    2.016    2.016    2.016    2.016
 (dLV/dLP)t      -1.00002 -1.00002 -1.00003 -1.00003 -1.00003 -1.00004 -1.00004 -1.00004
 (dLV/dLT)p        1.0007   1.0008   1.0009   1.0010   1.0011   1.0012   1.0013   1.0014
 Cp, KJ/(KG)(K)   16.3590  16.3894  16.4206  16.4525  16.4853  16.5190  16.5535  16.5891
 GAMMAs            1.3378   1.3370   1.3362   1.3354   1.3346   1.3338   1.3329   1.3321
 SON VEL,M/SEC     2980.6   2988.9   2997.3   3005.6   3013.8   3022.0   3030.2   3038.3

 TRANSPORT PROPERTIES (GASES ONLY)
   CONDUCTIVITY IN UNITS OF MILLIWATTS/(CM)(K)

 VISC,MILLIPOISE  0.28665  0.28791  0.28917  0.29043  0.29169  0.29295  0.29420  0.29546

  WITH EQUILIBRIUM REACTIONS

 Cp, KJ/(KG)(K)   16.3590  16.3894  16.4206  16.4525  16.4853  16.5190  16.5535  16.5891
 CONDUCTIVITY      6.7162   6.7609   6.8064   6.8527   6.8998   6.9477   6.9966   7.0464
 PRANDTL NUMBER    0.6982   0.6979   0.6976   0.6973   0.6969   0.6965   0.6961   0.6956

  WITH FROZEN REACTIONS

 Cp, KJ/(KG)(K)   16.2580  16.2787  16.2994  16.3200  16.3405  16.3609  16.3813  16.4016
 CONDUCTIVITY      6.6394   6.6763   6.7133   6.7503   6.7874   6.8244   6.8615   6.8986
 PRANDTL NUMBER    0.7019   0.7020   0.7021   0.7022   0.7022   0.7023   0.7024   0.7025

 MASS FRACTIONS

 *H               0.00004  0.00005  0.00005  0.00006  0.00006  0.00007  0.00008  0.00009
 *H2              0.99996  0.99995  0.99995  0.99994  0.99994  0.99993  0.99992  0.99991

  * THERMODYNAMIC PROPERTIES FITTED TO 20000.K

 NOTE. WEIGHT FRACTION OF FUEL IN TOTAL FUELS AND OF OXIDANT IN TOTAL OXIDANTS









               THERMODYNAMIC EQUILIBRIUM PROPERTIES AT ASSIGNED

                           TEMPERATURE AND PRESSURE

 CASE =                

             REACTANT                    WT FRACTION      ENERGY      TEMP
                                          (SEE NOTE)     KJ/KG-MOL      K  
 FUEL        H2                           1.0000000         0.000      0.000
 OXIDANT     H2                           1.0000000         0.000      0.000

 O/F=    1.00000  %FUEL= 50.000000  R,EQ.RATIO= 0.000000  PHI,EQ.RATIO=-1.000000

 THERMODYNAMIC PROPERTIES

 P, BAR           0.49000
 T, K             1690.00
 RHO, KG/CU M    7.0290-3
 H, KJ/KG         21105.0
 U, KJ/KG         14134.0
 G, KJ/KG       -137093.0
 S, KJ/(KG)(K)    93.6083

 M, (1/n)           2.016
 (dLV/dLP)t      -1.00005
 (dLV/dLT)p        1.0015
 Cp, KJ/(KG)(K)   16.6258
 GAMMAs            1.3312
 SON VEL,M/SEC     3046.3

 TRANSPORT PROPERTIES (GASES ONLY)
   CONDUCTIVITY IN UNITS OF MILLIWATTS/(CM)(K)

 VISC,MILLIPOISE  0.29671

  WITH EQUILIBRIUM REACTIONS

 Cp, KJ/(KG)(K)   16.6258
 CONDUCTIVITY      7.0973
 PRANDTL NUMBER    0.6951

  WITH FROZEN REACTIONS

 Cp, KJ/(KG)(K)   16.4217
 CONDUCTIVITY      6.9358
 PRANDTL NUMBER    0.7025

 MASS FRACTIONS

 *H               0.00010
 *H2              0.99990

  * THERMODYNAMIC PROPERTIES FITTED TO 20000.K

 NOTE. WEIGHT FRACTION OF FUEL IN TOTAL FUELS AND OF OXIDANT IN TOTAL OXIDANTS



  
