
 *******************************************************************************

         NASA-GLENN CHEMICAL EQUILIBRIUM PROGRAM CEA2, MAY 21, 2004
                   BY  BONNIE MCBRIDE AND SANFORD GORDON
      REFS: NASA RP-1311, PART I, 1994 AND NASA RP-1311, PART II, 1996

 *******************************************************************************



  prob tp ions
  p,bar= 0.0049,0.0054,0.006,0.0067,0.0074,0.00825,0.0091,0.01,0.011,0.012,0.0132
 ,0.0148,0.0165,0.018,0.02
  t,k= 350,355,360,365,370,375,380,385,390,395,400,405,410,415,420
  
  reac
  na H2                wt%=100.0000
  
  output short
  output siunits
  output transport
  
 end





               THERMODYNAMIC EQUILIBRIUM PROPERTIES AT ASSIGNED

                           TEMPERATURE AND PRESSURE

 CASE =                

             REACTANT                    WT FRACTION      ENERGY      TEMP
                                          (SEE NOTE)     KJ/KG-MOL      K  
             H2                           1.0000000         0.000      0.000

 O/F=    0.00000  %FUEL=100.000000  R,EQ.RATIO= 0.000000  PHI,EQ.RATIO= 0.000000

 THERMODYNAMIC PROPERTIES

 P, BAR           0.00490  0.00490  0.00490  0.00490  0.00490  0.00490  0.00490  0.00490
 T, K              350.00   355.00   360.00   365.00   370.00   375.00   380.00   385.00
 RHO, KG/CU M    3.3943-4 3.3465-4 3.3001-4 3.2549-4 3.2109-4 3.1681-4 3.1264-4 3.0858-4
 H, KJ/KG          745.34   817.50   889.70   961.93  1034.19  1106.47  1178.78  1251.12
 U, KJ/KG         -698.23  -646.69  -595.12  -543.51  -491.87  -440.21  -388.52  -336.81
 G, KJ/KG        -30428.1 -30873.9 -31320.7 -31768.6 -32217.4 -32667.2 -33118.0 -33569.8
 S, KJ/(KG)(K)    89.0669  89.2714  89.4733  89.6725  89.8692  90.0632  90.2548  90.4439

 M, (1/n)           2.016    2.016    2.016    2.016    2.016    2.016    2.016    2.016
 (dLV/dLP)t      -1.00000 -1.00000 -1.00000 -1.00000 -1.00000 -1.00000 -1.00000 -1.00000
 (dLV/dLT)p        1.0000   1.0000   1.0000   1.0000   1.0000   1.0000   1.0000   1.0000
 Cp, KJ/(KG)(K)   14.4287  14.4360  14.4427  14.4489  14.4545  14.4597  14.4644  14.4687
 GAMMAs            1.4003   1.4000   1.3997   1.3995   1.3993   1.3991   1.3989   1.3987
 SON VEL,M/SEC     1421.8   1431.7   1441.6   1451.5   1461.3   1471.0   1480.7   1490.3

 TRANSPORT PROPERTIES (GASES ONLY)
   CONDUCTIVITY IN UNITS OF MILLIWATTS/(CM)(K)

 VISC,MILLIPOISE  0.00000  0.00000  0.00001  0.00010  0.00068  0.00421  0.02162  0.06430

  WITH EQUILIBRIUM REACTIONS

 Cp, KJ/(KG)(K)   14.4287  14.4360  14.4427  14.4489  14.4545  14.4597  14.4644  14.4687
 CONDUCTIVITY      0.0000   0.0000   0.0001   0.0006   0.0042   0.0268   0.1564   0.6952
 PRANDTL NUMBER    2.3355   2.3360   2.3364   2.3356   2.3269   2.2716   1.9993   1.3382

  WITH FROZEN REACTIONS

 Cp, KJ/(KG)(K)   14.4287  14.4360  14.4427  14.4489  14.4545  14.4597  14.4644  14.4687
 CONDUCTIVITY      0.0000   0.0000   0.0001   0.0006   0.0042   0.0268   0.1564   0.6952
 PRANDTL NUMBER    2.3355   2.3360   2.3364   2.3356   2.3269   2.2716   1.9993   1.3382

 MOLE FRACTIONS

 *H2              1.00000  1.00000  1.00000  1.00000  1.00000  1.00000  1.00000  1.00000

  * THERMODYNAMIC PROPERTIES FITTED TO 20000.K

 NOTE. WEIGHT FRACTION OF FUEL IN TOTAL FUELS AND OF OXIDANT IN TOTAL OXIDANTS









               THERMODYNAMIC EQUILIBRIUM PROPERTIES AT ASSIGNED

                           TEMPERATURE AND PRESSURE

 CASE =                

             REACTANT                    WT FRACTION      ENERGY      TEMP
                                          (SEE NOTE)     KJ/KG-MOL      K  
             H2                           1.0000000         0.000      0.000

 O/F=    0.00000  %FUEL=100.000000  R,EQ.RATIO= 0.000000  PHI,EQ.RATIO= 0.000000

 THERMODYNAMIC PROPERTIES

 P, BAR           0.00490  0.00490  0.00490  0.00490  0.00490  0.00490  0.00490  0.00540
 T, K              390.00   395.00   400.00   405.00   410.00   415.00   420.00   350.00
 RHO, KG/CU M    3.0462-4 3.0077-4 2.9701-4 2.9334-4 2.8976-4 2.8627-4 2.8286-4 3.7407-4
 H, KJ/KG         1323.47  1395.84  1468.23  1540.64  1613.06  1685.49  1757.93   745.34
 U, KJ/KG         -285.08  -233.33  -181.56  -129.78  -77.984  -26.174   25.648  -698.23
 G, KJ/KG        -34022.5 -34476.1 -34930.6 -35386.0 -35842.4 -36299.6 -36757.7 -30287.7
 S, KJ/(KG)(K)    90.6306  90.8150  90.9971  91.1770  91.3547  91.5303  91.7038  88.6659

 M, (1/n)           2.016    2.016    2.016    2.016    2.016    2.016    2.016    2.016
 (dLV/dLP)t      -1.00000 -1.00000 -1.00000 -1.00000 -1.00000 -1.00000 -1.00000 -1.00000
 (dLV/dLT)p        1.0000   1.0000   1.0000   1.0000   1.0000   1.0000   1.0000   1.0000
 Cp, KJ/(KG)(K)   14.4726  14.4762  14.4795  14.4825  14.4852  14.4877  14.4900  14.4286
 GAMMAs            1.3986   1.3984   1.3983   1.3982   1.3981   1.3980   1.3979   1.4003
 SON VEL,M/SEC     1499.9   1509.4   1518.9   1528.3   1537.6   1546.9   1556.1   1421.8

 TRANSPORT PROPERTIES (GASES ONLY)
   CONDUCTIVITY IN UNITS OF MILLIWATTS/(CM)(K)

 VISC,MILLIPOISE  0.09621  0.10588  0.10855  0.10980  0.11078  0.11170  0.11262  0.00000

  WITH EQUILIBRIUM REACTIONS

 Cp, KJ/(KG)(K)   14.4726  14.4762  14.4795  14.4825  14.4852  14.4877  14.4900  14.4286
 CONDUCTIVITY      1.6289   2.1298   2.2678   2.3107   2.3346   2.3548   2.3741   0.0000
 PRANDTL NUMBER    0.8548   0.7196   0.6930   0.6882   0.6873   0.6873   0.6873   2.3355

  WITH FROZEN REACTIONS

 Cp, KJ/(KG)(K)   14.4726  14.4762  14.4795  14.4825  14.4852  14.4877  14.4900  14.4286
 CONDUCTIVITY      1.6289   2.1298   2.2678   2.3107   2.3346   2.3548   2.3741   0.0000
 PRANDTL NUMBER    0.8548   0.7196   0.6930   0.6882   0.6873   0.6873   0.6873   2.3355

 MOLE FRACTIONS

 *H2              1.00000  1.00000  1.00000  1.00000  1.00000  1.00000  1.00000  1.00000

  * THERMODYNAMIC PROPERTIES FITTED TO 20000.K

 NOTE. WEIGHT FRACTION OF FUEL IN TOTAL FUELS AND OF OXIDANT IN TOTAL OXIDANTS









               THERMODYNAMIC EQUILIBRIUM PROPERTIES AT ASSIGNED

                           TEMPERATURE AND PRESSURE

 CASE =                

             REACTANT                    WT FRACTION      ENERGY      TEMP
                                          (SEE NOTE)     KJ/KG-MOL      K  
             H2                           1.0000000         0.000      0.000

 O/F=    0.00000  %FUEL=100.000000  R,EQ.RATIO= 0.000000  PHI,EQ.RATIO= 0.000000

 THERMODYNAMIC PROPERTIES

 P, BAR           0.00540  0.00540  0.00540  0.00540  0.00540  0.00540  0.00540  0.00540
 T, K              355.00   360.00   365.00   370.00   375.00   380.00   385.00   390.00
 RHO, KG/CU M    3.6880-4 3.6368-4 3.5870-4 3.5385-4 3.4913-4 3.4454-4 3.4007-4 3.3571-4
 H, KJ/KG          817.50   889.70   961.93  1034.19  1106.47  1178.78  1251.12  1323.47
 U, KJ/KG         -646.69  -595.12  -543.51  -491.87  -440.21  -388.52  -336.81  -285.08
 G, KJ/KG        -30731.6 -31176.4 -31622.3 -32069.1 -32517.0 -32965.7 -33415.5 -33866.2
 S, KJ/(KG)(K)    88.8706  89.0725  89.2718  89.4684  89.6625  89.8540  90.0431  90.2298

 M, (1/n)           2.016    2.016    2.016    2.016    2.016    2.016    2.016    2.016
 (dLV/dLP)t      -1.00000 -1.00000 -1.00000 -1.00000 -1.00000 -1.00000 -1.00000 -1.00000
 (dLV/dLT)p        1.0000   1.0000   1.0000   1.0000   1.0000   1.0000   1.0000   1.0000
 Cp, KJ/(KG)(K)   14.4360  14.4427  14.4489  14.4545  14.4597  14.4644  14.4687  14.4726
 GAMMAs            1.4000   1.3997   1.3995   1.3993   1.3991   1.3989   1.3987   1.3986
 SON VEL,M/SEC     1431.7   1441.6   1451.5   1461.3   1471.0   1480.7   1490.3   1499.9

 TRANSPORT PROPERTIES (GASES ONLY)
   CONDUCTIVITY IN UNITS OF MILLIWATTS/(CM)(K)

 VISC,MILLIPOISE  0.00001  0.00004  0.00028  0.00182  0.01070  0.04344  0.08565  0.10282

  WITH EQUILIBRIUM REACTIONS

 Cp, KJ/(KG)(K)   14.4360  14.4427  14.4489  14.4545  14.4597  14.4644  14.4687  14.4726
 CONDUCTIVITY      0.0000   0.0002   0.0017   0.0114   0.0713   0.3792   1.2321   1.9769
 PRANDTL NUMBER    2.3360   2.3360   2.3327   2.3087   2.1688   1.6567   1.0058   0.7527

  WITH FROZEN REACTIONS

 Cp, KJ/(KG)(K)   14.4360  14.4427  14.4489  14.4545  14.4597  14.4644  14.4687  14.4726
 CONDUCTIVITY      0.0000   0.0002   0.0017   0.0114   0.0713   0.3792   1.2321   1.9769
 PRANDTL NUMBER    2.3360   2.3360   2.3327   2.3087   2.1688   1.6567   1.0058   0.7527

 MOLE FRACTIONS

 *H2              1.00000  1.00000  1.00000  1.00000  1.00000  1.00000  1.00000  1.00000

  * THERMODYNAMIC PROPERTIES FITTED TO 20000.K

 NOTE. WEIGHT FRACTION OF FUEL IN TOTAL FUELS AND OF OXIDANT IN TOTAL OXIDANTS









               THERMODYNAMIC EQUILIBRIUM PROPERTIES AT ASSIGNED

                           TEMPERATURE AND PRESSURE

 CASE =                

             REACTANT                    WT FRACTION      ENERGY      TEMP
                                          (SEE NOTE)     KJ/KG-MOL      K  
             H2                           1.0000000         0.000      0.000

 O/F=    0.00000  %FUEL=100.000000  R,EQ.RATIO= 0.000000  PHI,EQ.RATIO= 0.000000

 THERMODYNAMIC PROPERTIES

 P, BAR           0.00540  0.00540  0.00540  0.00540  0.00540  0.00540  0.00600  0.00600
 T, K              395.00   400.00   405.00   410.00   415.00   420.00   350.00   355.00
 RHO, KG/CU M    3.3146-4 3.2731-4 3.2327-4 3.1933-4 3.1548-4 3.1173-4 4.1564-4 4.0978-4
 H, KJ/KG         1395.84  1468.23  1540.64  1613.06  1685.49  1757.93   745.34   817.50
 U, KJ/KG         -233.33  -181.56  -129.78  -77.984  -26.174   25.648  -698.23  -646.69
 G, KJ/KG        -34317.8 -34770.3 -35223.7 -35678.1 -36133.3 -36589.4 -30135.6 -30577.3
 S, KJ/(KG)(K)    90.4142  90.5964  90.7762  90.9540  91.1296  91.3031  88.2314  88.4360

 M, (1/n)           2.016    2.016    2.016    2.016    2.016    2.016    2.016    2.016
 (dLV/dLP)t      -1.00000 -1.00000 -1.00000 -1.00000 -1.00000 -1.00000 -1.00000 -1.00000
 (dLV/dLT)p        1.0000   1.0000   1.0000   1.0000   1.0000   1.0000   1.0000   1.0000
 Cp, KJ/(KG)(K)   14.4762  14.4795  14.4825  14.4852  14.4877  14.4900  14.4286  14.4360
 GAMMAs            1.3984   1.3983   1.3982   1.3981   1.3980   1.3979   1.4003   1.4000
 SON VEL,M/SEC     1509.4   1518.9   1528.3   1537.6   1546.9   1556.1   1421.8   1431.7

 TRANSPORT PROPERTIES (GASES ONLY)
   CONDUCTIVITY IN UNITS OF MILLIWATTS/(CM)(K)

 VISC,MILLIPOISE  0.10723  0.10880  0.10984  0.11079  0.11170  0.11262  0.00000  0.00001

  WITH EQUILIBRIUM REACTIONS

 Cp, KJ/(KG)(K)   14.4762  14.4795  14.4825  14.4852  14.4877  14.4900  14.4286  14.4360
 CONDUCTIVITY      2.2207   2.2861   2.3143   2.3353   2.3549   2.3742   0.0000   0.0000
 PRANDTL NUMBER    0.6990   0.6891   0.6874   0.6872   0.6872   0.6873   2.3355   2.3360

  WITH FROZEN REACTIONS

 Cp, KJ/(KG)(K)   14.4762  14.4795  14.4825  14.4852  14.4877  14.4900  14.4286  14.4360
 CONDUCTIVITY      2.2207   2.2861   2.3143   2.3353   2.3549   2.3742   0.0000   0.0000
 PRANDTL NUMBER    0.6990   0.6891   0.6874   0.6872   0.6872   0.6873   2.3355   2.3360

 MOLE FRACTIONS

 *H2              1.00000  1.00000  1.00000  1.00000  1.00000  1.00000  1.00000  1.00000

  * THERMODYNAMIC PROPERTIES FITTED TO 20000.K

 NOTE. WEIGHT FRACTION OF FUEL IN TOTAL FUELS AND OF OXIDANT IN TOTAL OXIDANTS









               THERMODYNAMIC EQUILIBRIUM PROPERTIES AT ASSIGNED

                           TEMPERATURE AND PRESSURE

 CASE =                

             REACTANT                    WT FRACTION      ENERGY      TEMP
                                          (SEE NOTE)     KJ/KG-MOL      K  
             H2                           1.0000000         0.000      0.000

 O/F=    0.00000  %FUEL=100.000000  R,EQ.RATIO= 0.000000  PHI,EQ.RATIO= 0.000000

 THERMODYNAMIC PROPERTIES

 P, BAR           0.00600  0.00600  0.00600  0.00600  0.00600  0.00600  0.00600  0.00600
 T, K              360.00   365.00   370.00   375.00   380.00   385.00   390.00   395.00
 RHO, KG/CU M    4.0409-4 3.9855-4 3.9317-4 3.8793-4 3.8282-4 3.7785-4 3.7301-4 3.6828-4
 H, KJ/KG          889.70   961.93  1034.19  1106.47  1178.78  1251.12  1323.47  1395.84
 U, KJ/KG         -595.12  -543.51  -491.87  -440.21  -388.52  -336.81  -285.08  -233.33
 G, KJ/KG        -31020.0 -31463.7 -31908.3 -32354.0 -32800.6 -33248.2 -33696.7 -34146.1
 S, KJ/(KG)(K)    88.6380  88.8372  89.0338  89.2279  89.4195  89.6086  89.7953  89.9797

 M, (1/n)           2.016    2.016    2.016    2.016    2.016    2.016    2.016    2.016
 (dLV/dLP)t      -1.00000 -1.00000 -1.00000 -1.00000 -1.00000 -1.00000 -1.00000 -1.00000
 (dLV/dLT)p        1.0000   1.0000   1.0000   1.0000   1.0000   1.0000   1.0000   1.0000
 Cp, KJ/(KG)(K)   14.4427  14.4489  14.4545  14.4597  14.4644  14.4687  14.4726  14.4762
 GAMMAs            1.3997   1.3995   1.3993   1.3991   1.3989   1.3987   1.3986   1.3984
 SON VEL,M/SEC     1441.6   1451.5   1461.3   1471.0   1480.7   1490.3   1499.9   1509.4

 TRANSPORT PROPERTIES (GASES ONLY)
   CONDUCTIVITY IN UNITS OF MILLIWATTS/(CM)(K)

 VISC,MILLIPOISE  0.00004  0.00028  0.00182  0.01070  0.04344  0.08565  0.10282  0.10723

  WITH EQUILIBRIUM REACTIONS

 Cp, KJ/(KG)(K)   14.4427  14.4489  14.4545  14.4597  14.4644  14.4687  14.4726  14.4762
 CONDUCTIVITY      0.0002   0.0017   0.0114   0.0713   0.3792   1.2321   1.9769   2.2207
 PRANDTL NUMBER    2.3360   2.3327   2.3087   2.1688   1.6567   1.0058   0.7527   0.6990

  WITH FROZEN REACTIONS

 Cp, KJ/(KG)(K)   14.4427  14.4489  14.4545  14.4597  14.4644  14.4687  14.4726  14.4762
 CONDUCTIVITY      0.0002   0.0017   0.0114   0.0713   0.3792   1.2321   1.9769   2.2207
 PRANDTL NUMBER    2.3360   2.3327   2.3087   2.1688   1.6567   1.0058   0.7527   0.6990

 MOLE FRACTIONS

 *H2              1.00000  1.00000  1.00000  1.00000  1.00000  1.00000  1.00000  1.00000

  * THERMODYNAMIC PROPERTIES FITTED TO 20000.K

 NOTE. WEIGHT FRACTION OF FUEL IN TOTAL FUELS AND OF OXIDANT IN TOTAL OXIDANTS









               THERMODYNAMIC EQUILIBRIUM PROPERTIES AT ASSIGNED

                           TEMPERATURE AND PRESSURE

 CASE =                

             REACTANT                    WT FRACTION      ENERGY      TEMP
                                          (SEE NOTE)     KJ/KG-MOL      K  
             H2                           1.0000000         0.000      0.000

 O/F=    0.00000  %FUEL=100.000000  R,EQ.RATIO= 0.000000  PHI,EQ.RATIO= 0.000000

 THERMODYNAMIC PROPERTIES

 P, BAR           0.00600  0.00600  0.00600  0.00600  0.00600  0.00670  0.00670  0.00670
 T, K              400.00   405.00   410.00   415.00   420.00   350.00   355.00   360.00
 RHO, KG/CU M    3.6368-4 3.5919-4 3.5481-4 3.5054-4 3.4636-4 4.6413-4 4.5759-4 4.5123-4
 H, KJ/KG         1468.23  1540.64  1613.06  1685.49  1757.93   745.34   817.50   889.70
 U, KJ/KG         -181.56  -129.78  -77.984  -26.174   25.648  -698.23  -646.69  -595.12
 G, KJ/KG        -34596.5 -35047.7 -35499.9 -35952.9 -36406.8 -29976.3 -30415.7 -30856.1
 S, KJ/(KG)(K)    90.1618  90.3417  90.5194  90.6950  90.8685  87.7763  87.9809  88.1828

 M, (1/n)           2.016    2.016    2.016    2.016    2.016    2.016    2.016    2.016
 (dLV/dLP)t      -1.00000 -1.00000 -1.00000 -1.00000 -1.00000 -1.00000 -1.00000 -1.00000
 (dLV/dLT)p        1.0000   1.0000   1.0000   1.0000   1.0000   1.0000   1.0000   1.0000
 Cp, KJ/(KG)(K)   14.4795  14.4825  14.4852  14.4877  14.4900  14.4286  14.4360  14.4427
 GAMMAs            1.3983   1.3982   1.3981   1.3980   1.3979   1.4003   1.4000   1.3997
 SON VEL,M/SEC     1518.9   1528.3   1537.6   1546.9   1556.1   1421.8   1431.7   1441.6

 TRANSPORT PROPERTIES (GASES ONLY)
   CONDUCTIVITY IN UNITS OF MILLIWATTS/(CM)(K)

 VISC,MILLIPOISE  0.10880  0.10984  0.11079  0.11170  0.11262  0.00000  0.00001  0.00004

  WITH EQUILIBRIUM REACTIONS

 Cp, KJ/(KG)(K)   14.4795  14.4825  14.4852  14.4877  14.4900  14.4286  14.4360  14.4427
 CONDUCTIVITY      2.2861   2.3143   2.3353   2.3549   2.3742   0.0000   0.0000   0.0002
 PRANDTL NUMBER    0.6891   0.6874   0.6872   0.6872   0.6873   2.3355   2.3360   2.3360

  WITH FROZEN REACTIONS

 Cp, KJ/(KG)(K)   14.4795  14.4825  14.4852  14.4877  14.4900  14.4286  14.4360  14.4427
 CONDUCTIVITY      2.2861   2.3143   2.3353   2.3549   2.3742   0.0000   0.0000   0.0002
 PRANDTL NUMBER    0.6891   0.6874   0.6872   0.6872   0.6873   2.3355   2.3360   2.3360

 MOLE FRACTIONS

 *H2              1.00000  1.00000  1.00000  1.00000  1.00000  1.00000  1.00000  1.00000

  * THERMODYNAMIC PROPERTIES FITTED TO 20000.K

 NOTE. WEIGHT FRACTION OF FUEL IN TOTAL FUELS AND OF OXIDANT IN TOTAL OXIDANTS









               THERMODYNAMIC EQUILIBRIUM PROPERTIES AT ASSIGNED

                           TEMPERATURE AND PRESSURE

 CASE =                

             REACTANT                    WT FRACTION      ENERGY      TEMP
                                          (SEE NOTE)     KJ/KG-MOL      K  
             H2                           1.0000000         0.000      0.000

 O/F=    0.00000  %FUEL=100.000000  R,EQ.RATIO= 0.000000  PHI,EQ.RATIO= 0.000000

 THERMODYNAMIC PROPERTIES

 P, BAR           0.00670  0.00670  0.00670  0.00670  0.00670  0.00670  0.00670  0.00670
 T, K              365.00   370.00   375.00   380.00   385.00   390.00   395.00   400.00
 RHO, KG/CU M    4.4505-4 4.3904-4 4.3318-4 4.2749-4 4.2193-4 4.1652-4 4.1125-4 4.0611-4
 H, KJ/KG          961.93  1034.19  1106.47  1178.78  1251.12  1323.47  1395.84  1468.23
 U, KJ/KG         -543.51  -491.87  -440.21  -388.52  -336.81  -285.08  -233.33  -181.56
 G, KJ/KG        -31297.5 -31739.9 -32183.3 -32627.7 -33073.0 -33519.2 -33966.4 -34414.4
 S, KJ/(KG)(K)    88.3821  88.5787  88.7728  88.9643  89.1534  89.3402  89.5245  89.7067

 M, (1/n)           2.016    2.016    2.016    2.016    2.016    2.016    2.016    2.016
 (dLV/dLP)t      -1.00000 -1.00000 -1.00000 -1.00000 -1.00000 -1.00000 -1.00000 -1.00000
 (dLV/dLT)p        1.0000   1.0000   1.0000   1.0000   1.0000   1.0000   1.0000   1.0000
 Cp, KJ/(KG)(K)   14.4489  14.4545  14.4597  14.4644  14.4687  14.4726  14.4762  14.4795
 GAMMAs            1.3995   1.3993   1.3991   1.3989   1.3987   1.3986   1.3984   1.3983
 SON VEL,M/SEC     1451.5   1461.3   1471.0   1480.7   1490.3   1499.9   1509.4   1518.9

 TRANSPORT PROPERTIES (GASES ONLY)
   CONDUCTIVITY IN UNITS OF MILLIWATTS/(CM)(K)

 VISC,MILLIPOISE  0.00028  0.00182  0.01070  0.04344  0.08565  0.10282  0.10723  0.10880

  WITH EQUILIBRIUM REACTIONS

 Cp, KJ/(KG)(K)   14.4489  14.4545  14.4597  14.4644  14.4687  14.4726  14.4762  14.4795
 CONDUCTIVITY      0.0017   0.0114   0.0713   0.3792   1.2321   1.9769   2.2207   2.2861
 PRANDTL NUMBER    2.3327   2.3087   2.1688   1.6567   1.0058   0.7527   0.6990   0.6891

  WITH FROZEN REACTIONS

 Cp, KJ/(KG)(K)   14.4489  14.4545  14.4597  14.4644  14.4687  14.4726  14.4762  14.4795
 CONDUCTIVITY      0.0017   0.0114   0.0713   0.3792   1.2321   1.9769   2.2207   2.2861
 PRANDTL NUMBER    2.3327   2.3087   2.1688   1.6567   1.0058   0.7527   0.6990   0.6891

 MOLE FRACTIONS

 *H2              1.00000  1.00000  1.00000  1.00000  1.00000  1.00000  1.00000  1.00000

  * THERMODYNAMIC PROPERTIES FITTED TO 20000.K

 NOTE. WEIGHT FRACTION OF FUEL IN TOTAL FUELS AND OF OXIDANT IN TOTAL OXIDANTS









               THERMODYNAMIC EQUILIBRIUM PROPERTIES AT ASSIGNED

                           TEMPERATURE AND PRESSURE

 CASE =                

             REACTANT                    WT FRACTION      ENERGY      TEMP
                                          (SEE NOTE)     KJ/KG-MOL      K  
             H2                           1.0000000         0.000      0.000

 O/F=    0.00000  %FUEL=100.000000  R,EQ.RATIO= 0.000000  PHI,EQ.RATIO= 0.000000

 THERMODYNAMIC PROPERTIES

 P, BAR           0.00670  0.00670  0.00670  0.00670  0.00740  0.00740  0.00740  0.00740
 T, K              405.00   410.00   415.00   420.00   350.00   355.00   360.00   365.00
 RHO, KG/CU M    4.0110-4 3.9621-4 3.9143-4 3.8677-4 5.1262-4 5.0540-4 4.9838-4 4.9155-4
 H, KJ/KG         1540.64  1613.06  1685.49  1757.93   745.34   817.50   889.70   961.93
 U, KJ/KG         -129.78  -77.984  -26.174   25.648  -698.23  -646.69  -595.12  -543.51
 G, KJ/KG        -34863.4 -35313.3 -35764.1 -36215.7 -29832.9 -30270.2 -30708.6 -31147.9
 S, KJ/(KG)(K)    89.8866  90.0643  90.2399  90.4134  87.3664  87.5711  87.7730  87.9722

 M, (1/n)           2.016    2.016    2.016    2.016    2.016    2.016    2.016    2.016
 (dLV/dLP)t      -1.00000 -1.00000 -1.00000 -1.00000 -1.00000 -1.00000 -1.00000 -1.00000
 (dLV/dLT)p        1.0000   1.0000   1.0000   1.0000   1.0000   1.0000   1.0000   1.0000
 Cp, KJ/(KG)(K)   14.4825  14.4852  14.4877  14.4900  14.4286  14.4360  14.4427  14.4489
 GAMMAs            1.3982   1.3981   1.3980   1.3979   1.4003   1.4000   1.3997   1.3995
 SON VEL,M/SEC     1528.3   1537.6   1546.9   1556.1   1421.8   1431.7   1441.6   1451.5

 TRANSPORT PROPERTIES (GASES ONLY)
   CONDUCTIVITY IN UNITS OF MILLIWATTS/(CM)(K)

 VISC,MILLIPOISE  0.10984  0.11079  0.11170  0.11262  0.00000  0.00001  0.00004  0.00028

  WITH EQUILIBRIUM REACTIONS

 Cp, KJ/(KG)(K)   14.4825  14.4852  14.4877  14.4900  14.4286  14.4360  14.4427  14.4489
 CONDUCTIVITY      2.3143   2.3353   2.3549   2.3742   0.0000   0.0000   0.0002   0.0017
 PRANDTL NUMBER    0.6874   0.6872   0.6872   0.6873   2.3355   2.3360   2.3360   2.3327

  WITH FROZEN REACTIONS

 Cp, KJ/(KG)(K)   14.4825  14.4852  14.4877  14.4900  14.4286  14.4360  14.4427  14.4489
 CONDUCTIVITY      2.3143   2.3353   2.3549   2.3742   0.0000   0.0000   0.0002   0.0017
 PRANDTL NUMBER    0.6874   0.6872   0.6872   0.6873   2.3355   2.3360   2.3360   2.3327

 MOLE FRACTIONS

 *H2              1.00000  1.00000  1.00000  1.00000  1.00000  1.00000  1.00000  1.00000

  * THERMODYNAMIC PROPERTIES FITTED TO 20000.K

 NOTE. WEIGHT FRACTION OF FUEL IN TOTAL FUELS AND OF OXIDANT IN TOTAL OXIDANTS









               THERMODYNAMIC EQUILIBRIUM PROPERTIES AT ASSIGNED

                           TEMPERATURE AND PRESSURE

 CASE =                

             REACTANT                    WT FRACTION      ENERGY      TEMP
                                          (SEE NOTE)     KJ/KG-MOL      K  
             H2                           1.0000000         0.000      0.000

 O/F=    0.00000  %FUEL=100.000000  R,EQ.RATIO= 0.000000  PHI,EQ.RATIO= 0.000000

 THERMODYNAMIC PROPERTIES

 P, BAR           0.00740  0.00740  0.00740  0.00740  0.00740  0.00740  0.00740  0.00740
 T, K              370.00   375.00   380.00   385.00   390.00   395.00   400.00   405.00
 RHO, KG/CU M    4.8491-4 4.7844-4 4.7215-4 4.6602-4 4.6004-4 4.5422-4 4.4854-4 4.4300-4
 H, KJ/KG         1034.19  1106.47  1178.78  1251.12  1323.47  1395.84  1468.23  1540.64
 U, KJ/KG         -491.87  -440.21  -388.52  -336.81  -285.08  -233.33  -181.56  -129.78
 G, KJ/KG        -31588.3 -32029.6 -32471.9 -32915.2 -33359.3 -33804.5 -34250.5 -34697.4
 S, KJ/(KG)(K)    88.1689  88.3629  88.5545  88.7436  88.9303  89.1147  89.2968  89.4767

 M, (1/n)           2.016    2.016    2.016    2.016    2.016    2.016    2.016    2.016
 (dLV/dLP)t      -1.00000 -1.00000 -1.00000 -1.00000 -1.00000 -1.00000 -1.00000 -1.00000
 (dLV/dLT)p        1.0000   1.0000   1.0000   1.0000   1.0000   1.0000   1.0000   1.0000
 Cp, KJ/(KG)(K)   14.4545  14.4597  14.4644  14.4687  14.4726  14.4762  14.4795  14.4825
 GAMMAs            1.3993   1.3991   1.3989   1.3987   1.3986   1.3984   1.3983   1.3982
 SON VEL,M/SEC     1461.3   1471.0   1480.7   1490.3   1499.9   1509.4   1518.9   1528.3

 TRANSPORT PROPERTIES (GASES ONLY)
   CONDUCTIVITY IN UNITS OF MILLIWATTS/(CM)(K)

 VISC,MILLIPOISE  0.00182  0.01070  0.04344  0.08565  0.10282  0.10723  0.10880  0.10984

  WITH EQUILIBRIUM REACTIONS

 Cp, KJ/(KG)(K)   14.4545  14.4597  14.4644  14.4687  14.4726  14.4762  14.4795  14.4825
 CONDUCTIVITY      0.0114   0.0713   0.3792   1.2321   1.9769   2.2207   2.2861   2.3143
 PRANDTL NUMBER    2.3087   2.1688   1.6567   1.0058   0.7527   0.6990   0.6891   0.6874

  WITH FROZEN REACTIONS

 Cp, KJ/(KG)(K)   14.4545  14.4597  14.4644  14.4687  14.4726  14.4762  14.4795  14.4825
 CONDUCTIVITY      0.0114   0.0713   0.3792   1.2321   1.9769   2.2207   2.2861   2.3143
 PRANDTL NUMBER    2.3087   2.1688   1.6567   1.0058   0.7527   0.6990   0.6891   0.6874

 MOLE FRACTIONS

 *H2              1.00000  1.00000  1.00000  1.00000  1.00000  1.00000  1.00000  1.00000

  * THERMODYNAMIC PROPERTIES FITTED TO 20000.K

 NOTE. WEIGHT FRACTION OF FUEL IN TOTAL FUELS AND OF OXIDANT IN TOTAL OXIDANTS









               THERMODYNAMIC EQUILIBRIUM PROPERTIES AT ASSIGNED

                           TEMPERATURE AND PRESSURE

 CASE =                

             REACTANT                    WT FRACTION      ENERGY      TEMP
                                          (SEE NOTE)     KJ/KG-MOL      K  
             H2                           1.0000000         0.000      0.000

 O/F=    0.00000  %FUEL=100.000000  R,EQ.RATIO= 0.000000  PHI,EQ.RATIO= 0.000000

 THERMODYNAMIC PROPERTIES

 P, BAR           0.00740  0.00740  0.00740  0.00825  0.00825  0.00825  0.00825  0.00825
 T, K              410.00   415.00   420.00   350.00   355.00   360.00   365.00   370.00
 RHO, KG/CU M    4.3760-4 4.3233-4 4.2718-4 5.7150-4 5.6345-4 5.5562-4 5.4801-4 5.4061-4
 H, KJ/KG         1613.06  1685.49  1757.93   745.34   817.50   889.70   961.93  1034.19
 U, KJ/KG         -77.984  -26.174   25.648  -698.23  -646.69  -595.12  -543.51  -491.87
 G, KJ/KG        -35145.3 -35594.0 -36043.5 -29675.9 -30111.0 -30547.1 -30984.2 -31422.4
 S, KJ/(KG)(K)    89.6544  89.8300  90.0035  86.9179  87.1226  87.3245  87.5238  87.7204

 M, (1/n)           2.016    2.016    2.016    2.016    2.016    2.016    2.016    2.016
 (dLV/dLP)t      -1.00000 -1.00000 -1.00000 -1.00000 -1.00000 -1.00000 -1.00000 -1.00000
 (dLV/dLT)p        1.0000   1.0000   1.0000   1.0000   1.0000   1.0000   1.0000   1.0000
 Cp, KJ/(KG)(K)   14.4852  14.4877  14.4900  14.4286  14.4360  14.4427  14.4489  14.4545
 GAMMAs            1.3981   1.3980   1.3979   1.4003   1.4000   1.3997   1.3995   1.3993
 SON VEL,M/SEC     1537.6   1546.9   1556.1   1421.8   1431.7   1441.6   1451.5   1461.3

 TRANSPORT PROPERTIES (GASES ONLY)
   CONDUCTIVITY IN UNITS OF MILLIWATTS/(CM)(K)

 VISC,MILLIPOISE  0.11079  0.11170  0.11262  0.00000  0.00001  0.00004  0.00028  0.00182

  WITH EQUILIBRIUM REACTIONS

 Cp, KJ/(KG)(K)   14.4852  14.4877  14.4900  14.4286  14.4360  14.4427  14.4489  14.4545
 CONDUCTIVITY      2.3353   2.3549   2.3742   0.0000   0.0000   0.0002   0.0017   0.0114
 PRANDTL NUMBER    0.6872   0.6872   0.6873   2.3355   2.3360   2.3360   2.3327   2.3087

  WITH FROZEN REACTIONS

 Cp, KJ/(KG)(K)   14.4852  14.4877  14.4900  14.4286  14.4360  14.4427  14.4489  14.4545
 CONDUCTIVITY      2.3353   2.3549   2.3742   0.0000   0.0000   0.0002   0.0017   0.0114
 PRANDTL NUMBER    0.6872   0.6872   0.6873   2.3355   2.3360   2.3360   2.3327   2.3087

 MOLE FRACTIONS

 *H2              1.00000  1.00000  1.00000  1.00000  1.00000  1.00000  1.00000  1.00000

  * THERMODYNAMIC PROPERTIES FITTED TO 20000.K

 NOTE. WEIGHT FRACTION OF FUEL IN TOTAL FUELS AND OF OXIDANT IN TOTAL OXIDANTS









               THERMODYNAMIC EQUILIBRIUM PROPERTIES AT ASSIGNED

                           TEMPERATURE AND PRESSURE

 CASE =                

             REACTANT                    WT FRACTION      ENERGY      TEMP
                                          (SEE NOTE)     KJ/KG-MOL      K  
             H2                           1.0000000         0.000      0.000

 O/F=    0.00000  %FUEL=100.000000  R,EQ.RATIO= 0.000000  PHI,EQ.RATIO= 0.000000

 THERMODYNAMIC PROPERTIES

 P, BAR           0.00825  0.00825  0.00825  0.00825  0.00825  0.00825  0.00825  0.00825
 T, K              375.00   380.00   385.00   390.00   395.00   400.00   405.00   410.00
 RHO, KG/CU M    5.3340-4 5.2638-4 5.1954-4 5.1288-4 5.0639-4 5.0006-4 4.9389-4 4.8787-4
 H, KJ/KG         1106.47  1178.78  1251.12  1323.47  1395.84  1468.23  1540.64  1613.06
 U, KJ/KG         -440.21  -388.52  -336.81  -285.08  -233.33  -181.56  -129.78  -77.984
 G, KJ/KG        -31861.4 -32301.5 -32742.5 -33184.4 -33627.3 -34071.1 -34515.8 -34961.4
 S, KJ/(KG)(K)    87.9144  88.1060  88.2951  88.4818  88.6662  88.8483  89.0282  89.2059

 M, (1/n)           2.016    2.016    2.016    2.016    2.016    2.016    2.016    2.016
 (dLV/dLP)t      -1.00000 -1.00000 -1.00000 -1.00000 -1.00000 -1.00000 -1.00000 -1.00000
 (dLV/dLT)p        1.0000   1.0000   1.0000   1.0000   1.0000   1.0000   1.0000   1.0000
 Cp, KJ/(KG)(K)   14.4597  14.4644  14.4687  14.4726  14.4762  14.4795  14.4825  14.4852
 GAMMAs            1.3991   1.3989   1.3987   1.3986   1.3984   1.3983   1.3982   1.3981
 SON VEL,M/SEC     1471.0   1480.7   1490.3   1499.9   1509.4   1518.9   1528.3   1537.6

 TRANSPORT PROPERTIES (GASES ONLY)
   CONDUCTIVITY IN UNITS OF MILLIWATTS/(CM)(K)

 VISC,MILLIPOISE  0.01070  0.04344  0.08565  0.10282  0.10723  0.10880  0.10984  0.11079

  WITH EQUILIBRIUM REACTIONS

 Cp, KJ/(KG)(K)   14.4597  14.4644  14.4687  14.4726  14.4762  14.4795  14.4825  14.4852
 CONDUCTIVITY      0.0713   0.3792   1.2321   1.9769   2.2207   2.2861   2.3143   2.3353
 PRANDTL NUMBER    2.1688   1.6567   1.0058   0.7527   0.6990   0.6891   0.6874   0.6872

  WITH FROZEN REACTIONS

 Cp, KJ/(KG)(K)   14.4597  14.4644  14.4687  14.4726  14.4762  14.4795  14.4825  14.4852
 CONDUCTIVITY      0.0713   0.3792   1.2321   1.9769   2.2207   2.2861   2.3143   2.3353
 PRANDTL NUMBER    2.1688   1.6567   1.0058   0.7527   0.6990   0.6891   0.6874   0.6872

 MOLE FRACTIONS

 *H2              1.00000  1.00000  1.00000  1.00000  1.00000  1.00000  1.00000  1.00000

  * THERMODYNAMIC PROPERTIES FITTED TO 20000.K

 NOTE. WEIGHT FRACTION OF FUEL IN TOTAL FUELS AND OF OXIDANT IN TOTAL OXIDANTS









               THERMODYNAMIC EQUILIBRIUM PROPERTIES AT ASSIGNED

                           TEMPERATURE AND PRESSURE

 CASE =                

             REACTANT                    WT FRACTION      ENERGY      TEMP
                                          (SEE NOTE)     KJ/KG-MOL      K  
             H2                           1.0000000         0.000      0.000

 O/F=    0.00000  %FUEL=100.000000  R,EQ.RATIO= 0.000000  PHI,EQ.RATIO= 0.000000

 THERMODYNAMIC PROPERTIES

 P, BAR           0.00825  0.00825  0.00910  0.00910  0.00910  0.00910  0.00910  0.00910
 T, K              415.00   420.00   350.00   355.00   360.00   365.00   370.00   375.00
 RHO, KG/CU M    4.8199-4 4.7625-4 6.3038-4 6.2150-4 6.1287-4 6.0447-4 5.9631-4 5.8836-4
 H, KJ/KG         1685.49  1757.93   745.34   817.50   889.70   961.93  1034.19  1106.47
 U, KJ/KG         -26.174   25.648  -698.23  -646.69  -595.12  -543.51  -491.87  -440.21
 G, KJ/KG        -35407.8 -35855.2 -29534.4 -29967.4 -30401.5 -30836.6 -31272.7 -31709.8
 S, KJ/(KG)(K)    89.3815  89.5551  86.5135  86.7181  86.9201  87.1193  87.3159  87.5100

 M, (1/n)           2.016    2.016    2.016    2.016    2.016    2.016    2.016    2.016
 (dLV/dLP)t      -1.00000 -1.00000 -1.00000 -1.00000 -1.00000 -1.00000 -1.00000 -1.00000
 (dLV/dLT)p        1.0000   1.0000   1.0000   1.0000   1.0000   1.0000   1.0000   1.0000
 Cp, KJ/(KG)(K)   14.4877  14.4900  14.4286  14.4360  14.4427  14.4489  14.4545  14.4597
 GAMMAs            1.3980   1.3979   1.4003   1.4000   1.3997   1.3995   1.3993   1.3991
 SON VEL,M/SEC     1546.9   1556.1   1421.8   1431.7   1441.6   1451.5   1461.3   1471.0

 TRANSPORT PROPERTIES (GASES ONLY)
   CONDUCTIVITY IN UNITS OF MILLIWATTS/(CM)(K)

 VISC,MILLIPOISE  0.11170  0.11262  0.00000  0.00001  0.00004  0.00028  0.00182  0.01070

  WITH EQUILIBRIUM REACTIONS

 Cp, KJ/(KG)(K)   14.4877  14.4900  14.4286  14.4360  14.4427  14.4489  14.4545  14.4597
 CONDUCTIVITY      2.3549   2.3742   0.0000   0.0000   0.0002   0.0017   0.0114   0.0713
 PRANDTL NUMBER    0.6872   0.6873   2.3355   2.3360   2.3360   2.3327   2.3087   2.1688

  WITH FROZEN REACTIONS

 Cp, KJ/(KG)(K)   14.4877  14.4900  14.4286  14.4360  14.4427  14.4489  14.4545  14.4597
 CONDUCTIVITY      2.3549   2.3742   0.0000   0.0000   0.0002   0.0017   0.0114   0.0713
 PRANDTL NUMBER    0.6872   0.6873   2.3355   2.3360   2.3360   2.3327   2.3087   2.1688

 MOLE FRACTIONS

 *H2              1.00000  1.00000  1.00000  1.00000  1.00000  1.00000  1.00000  1.00000

  * THERMODYNAMIC PROPERTIES FITTED TO 20000.K

 NOTE. WEIGHT FRACTION OF FUEL IN TOTAL FUELS AND OF OXIDANT IN TOTAL OXIDANTS









               THERMODYNAMIC EQUILIBRIUM PROPERTIES AT ASSIGNED

                           TEMPERATURE AND PRESSURE

 CASE =                

             REACTANT                    WT FRACTION      ENERGY      TEMP
                                          (SEE NOTE)     KJ/KG-MOL      K  
             H2                           1.0000000         0.000      0.000

 O/F=    0.00000  %FUEL=100.000000  R,EQ.RATIO= 0.000000  PHI,EQ.RATIO= 0.000000

 THERMODYNAMIC PROPERTIES

 P, BAR           0.00910  0.00910  0.00910  0.00910  0.00910  0.00910  0.00910  0.00910
 T, K              380.00   385.00   390.00   395.00   400.00   405.00   410.00   415.00
 RHO, KG/CU M    5.8061-4 5.7307-4 5.6573-4 5.5857-4 5.5158-4 5.4477-4 5.3813-4 5.3165-4
 H, KJ/KG         1178.78  1251.12  1323.47  1395.84  1468.23  1540.64  1613.06  1685.49
 U, KJ/KG         -388.52  -336.81  -285.08  -233.33  -181.56  -129.78  -77.984  -26.174
 G, KJ/KG        -32147.8 -32586.8 -33026.7 -33467.6 -33909.3 -34352.0 -34795.6 -35240.0
 S, KJ/(KG)(K)    87.7015  87.8906  88.0774  88.2618  88.4439  88.6238  88.8015  88.9771

 M, (1/n)           2.016    2.016    2.016    2.016    2.016    2.016    2.016    2.016
 (dLV/dLP)t      -1.00000 -1.00000 -1.00000 -1.00000 -1.00000 -1.00000 -1.00000 -1.00000
 (dLV/dLT)p        1.0000   1.0000   1.0000   1.0000   1.0000   1.0000   1.0000   1.0000
 Cp, KJ/(KG)(K)   14.4644  14.4687  14.4726  14.4762  14.4795  14.4825  14.4852  14.4877
 GAMMAs            1.3989   1.3987   1.3986   1.3984   1.3983   1.3982   1.3981   1.3980
 SON VEL,M/SEC     1480.7   1490.3   1499.9   1509.4   1518.9   1528.3   1537.6   1546.9

 TRANSPORT PROPERTIES (GASES ONLY)
   CONDUCTIVITY IN UNITS OF MILLIWATTS/(CM)(K)

 VISC,MILLIPOISE  0.04344  0.08565  0.10282  0.10723  0.10880  0.10984  0.11079  0.11170

  WITH EQUILIBRIUM REACTIONS

 Cp, KJ/(KG)(K)   14.4644  14.4687  14.4726  14.4762  14.4795  14.4825  14.4852  14.4877
 CONDUCTIVITY      0.3792   1.2321   1.9769   2.2207   2.2861   2.3143   2.3353   2.3549
 PRANDTL NUMBER    1.6567   1.0058   0.7527   0.6990   0.6891   0.6874   0.6872   0.6872

  WITH FROZEN REACTIONS

 Cp, KJ/(KG)(K)   14.4644  14.4687  14.4726  14.4762  14.4795  14.4825  14.4852  14.4877
 CONDUCTIVITY      0.3792   1.2321   1.9769   2.2207   2.2861   2.3143   2.3353   2.3549
 PRANDTL NUMBER    1.6567   1.0058   0.7527   0.6990   0.6891   0.6874   0.6872   0.6872

 MOLE FRACTIONS

 *H2              1.00000  1.00000  1.00000  1.00000  1.00000  1.00000  1.00000  1.00000

  * THERMODYNAMIC PROPERTIES FITTED TO 20000.K

 NOTE. WEIGHT FRACTION OF FUEL IN TOTAL FUELS AND OF OXIDANT IN TOTAL OXIDANTS









               THERMODYNAMIC EQUILIBRIUM PROPERTIES AT ASSIGNED

                           TEMPERATURE AND PRESSURE

 CASE =                

             REACTANT                    WT FRACTION      ENERGY      TEMP
                                          (SEE NOTE)     KJ/KG-MOL      K  
             H2                           1.0000000         0.000      0.000

 O/F=    0.00000  %FUEL=100.000000  R,EQ.RATIO= 0.000000  PHI,EQ.RATIO= 0.000000

 THERMODYNAMIC PROPERTIES

 P, BAR           0.00910  0.01000  0.01000  0.01000  0.01000  0.01000  0.01000  0.01000
 T, K              420.00   350.00   355.00   360.00   365.00   370.00   375.00   380.00
 RHO, KG/CU M    5.2532-4 6.9273-4 6.8297-4 6.7348-4 6.6426-4 6.5528-4 6.4654-4 6.3804-4
 H, KJ/KG         1757.93   745.34   817.50   889.70   961.93  1034.19  1106.47  1178.78
 U, KJ/KG          25.648  -698.23  -646.69  -595.12  -543.51  -491.87  -440.21  -388.52
 G, KJ/KG        -35685.3 -29398.2 -29829.3 -30261.5 -30694.6 -31128.8 -31563.9 -32000.0
 S, KJ/(KG)(K)    89.1506  86.1245  86.3291  86.5311  86.7303  86.9269  87.1210  87.3126

 M, (1/n)           2.016    2.016    2.016    2.016    2.016    2.016    2.016    2.016
 (dLV/dLP)t      -1.00000 -1.00000 -1.00000 -1.00000 -1.00000 -1.00000 -1.00000 -1.00000
 (dLV/dLT)p        1.0000   1.0000   1.0000   1.0000   1.0000   1.0000   1.0000   1.0000
 Cp, KJ/(KG)(K)   14.4900  14.4286  14.4360  14.4427  14.4489  14.4545  14.4597  14.4644
 GAMMAs            1.3979   1.4003   1.4000   1.3997   1.3995   1.3993   1.3991   1.3989
 SON VEL,M/SEC     1556.1   1421.8   1431.7   1441.6   1451.5   1461.3   1471.0   1480.7

 TRANSPORT PROPERTIES (GASES ONLY)
   CONDUCTIVITY IN UNITS OF MILLIWATTS/(CM)(K)

 VISC,MILLIPOISE  0.11262  0.00000  0.00001  0.00004  0.00028  0.00182  0.01070  0.04344

  WITH EQUILIBRIUM REACTIONS

 Cp, KJ/(KG)(K)   14.4900  14.4286  14.4360  14.4427  14.4489  14.4545  14.4597  14.4644
 CONDUCTIVITY      2.3742   0.0000   0.0000   0.0002   0.0017   0.0114   0.0713   0.3792
 PRANDTL NUMBER    0.6873   2.3355   2.3360   2.3360   2.3327   2.3087   2.1688   1.6567

  WITH FROZEN REACTIONS

 Cp, KJ/(KG)(K)   14.4900  14.4286  14.4360  14.4427  14.4489  14.4545  14.4597  14.4644
 CONDUCTIVITY      2.3742   0.0000   0.0000   0.0002   0.0017   0.0114   0.0713   0.3792
 PRANDTL NUMBER    0.6873   2.3355   2.3360   2.3360   2.3327   2.3087   2.1688   1.6567

 MOLE FRACTIONS

 *H2              1.00000  1.00000  1.00000  1.00000  1.00000  1.00000  1.00000  1.00000

  * THERMODYNAMIC PROPERTIES FITTED TO 20000.K

 NOTE. WEIGHT FRACTION OF FUEL IN TOTAL FUELS AND OF OXIDANT IN TOTAL OXIDANTS









               THERMODYNAMIC EQUILIBRIUM PROPERTIES AT ASSIGNED

                           TEMPERATURE AND PRESSURE

 CASE =                

             REACTANT                    WT FRACTION      ENERGY      TEMP
                                          (SEE NOTE)     KJ/KG-MOL      K  
             H2                           1.0000000         0.000      0.000

 O/F=    0.00000  %FUEL=100.000000  R,EQ.RATIO= 0.000000  PHI,EQ.RATIO= 0.000000

 THERMODYNAMIC PROPERTIES

 P, BAR           0.01000  0.01000  0.01000  0.01000  0.01000  0.01000  0.01000  0.01000
 T, K              385.00   390.00   395.00   400.00   405.00   410.00   415.00   420.00
 RHO, KG/CU M    6.2975-4 6.2168-4 6.1381-4 6.0614-4 5.9865-4 5.9135-4 5.8423-4 5.7727-4
 H, KJ/KG         1251.12  1323.47  1395.84  1468.23  1540.64  1613.06  1685.49  1757.93
 U, KJ/KG         -336.81  -285.08  -233.33  -181.56  -129.78  -77.984  -26.174   25.648
 G, KJ/KG        -32437.0 -32875.0 -33313.9 -33753.7 -34194.4 -34636.1 -35078.6 -35521.9
 S, KJ/(KG)(K)    87.5017  87.6884  87.8728  88.0549  88.2348  88.4125  88.5881  88.7616

 M, (1/n)           2.016    2.016    2.016    2.016    2.016    2.016    2.016    2.016
 (dLV/dLP)t      -1.00000 -1.00000 -1.00000 -1.00000 -1.00000 -1.00000 -1.00000 -1.00000
 (dLV/dLT)p        1.0000   1.0000   1.0000   1.0000   1.0000   1.0000   1.0000   1.0000
 Cp, KJ/(KG)(K)   14.4687  14.4726  14.4762  14.4795  14.4825  14.4852  14.4877  14.4900
 GAMMAs            1.3987   1.3986   1.3984   1.3983   1.3982   1.3981   1.3980   1.3979
 SON VEL,M/SEC     1490.3   1499.9   1509.4   1518.9   1528.3   1537.6   1546.9   1556.1

 TRANSPORT PROPERTIES (GASES ONLY)
   CONDUCTIVITY IN UNITS OF MILLIWATTS/(CM)(K)

 VISC,MILLIPOISE  0.08565  0.10282  0.10723  0.10880  0.10984  0.11079  0.11170  0.11262

  WITH EQUILIBRIUM REACTIONS

 Cp, KJ/(KG)(K)   14.4687  14.4726  14.4762  14.4795  14.4825  14.4852  14.4877  14.4900
 CONDUCTIVITY      1.2321   1.9769   2.2207   2.2861   2.3143   2.3353   2.3549   2.3742
 PRANDTL NUMBER    1.0058   0.7527   0.6990   0.6891   0.6874   0.6872   0.6872   0.6873

  WITH FROZEN REACTIONS

 Cp, KJ/(KG)(K)   14.4687  14.4726  14.4762  14.4795  14.4825  14.4852  14.4877  14.4900
 CONDUCTIVITY      1.2321   1.9769   2.2207   2.2861   2.3143   2.3353   2.3549   2.3742
 PRANDTL NUMBER    1.0058   0.7527   0.6990   0.6891   0.6874   0.6872   0.6872   0.6873

 MOLE FRACTIONS

 *H2              1.00000  1.00000  1.00000  1.00000  1.00000  1.00000  1.00000  1.00000

  * THERMODYNAMIC PROPERTIES FITTED TO 20000.K

 NOTE. WEIGHT FRACTION OF FUEL IN TOTAL FUELS AND OF OXIDANT IN TOTAL OXIDANTS









               THERMODYNAMIC EQUILIBRIUM PROPERTIES AT ASSIGNED

                           TEMPERATURE AND PRESSURE

 CASE =                

             REACTANT                    WT FRACTION      ENERGY      TEMP
                                          (SEE NOTE)     KJ/KG-MOL      K  
             H2                           1.0000000         0.000      0.000

 O/F=    0.00000  %FUEL=100.000000  R,EQ.RATIO= 0.000000  PHI,EQ.RATIO= 0.000000

 THERMODYNAMIC PROPERTIES

 P, BAR           0.01100  0.01100  0.01100  0.01100  0.01100  0.01100  0.01100  0.01100
 T, K              350.00   355.00   360.00   365.00   370.00   375.00   380.00   385.00
 RHO, KG/CU M    7.6200-4 7.5127-4 7.4083-4 7.3068-4 7.2081-4 7.1120-4 7.0184-4 6.9273-4
 H, KJ/KG          745.34   817.50   889.70   961.93  1034.19  1106.47  1178.78  1251.12
 U, KJ/KG         -698.23  -646.69  -595.12  -543.51  -491.87  -440.21  -388.52  -336.81
 G, KJ/KG        -29260.6 -29689.8 -30120.0 -30551.2 -30983.3 -31416.5 -31850.6 -32285.7
 S, KJ/(KG)(K)    85.7314  85.9360  86.1380  86.3372  86.5338  86.7279  86.9194  87.1086

 M, (1/n)           2.016    2.016    2.016    2.016    2.016    2.016    2.016    2.016
 (dLV/dLP)t      -1.00000 -1.00000 -1.00000 -1.00000 -1.00000 -1.00000 -1.00000 -1.00000
 (dLV/dLT)p        1.0000   1.0000   1.0000   1.0000   1.0000   1.0000   1.0000   1.0000
 Cp, KJ/(KG)(K)   14.4286  14.4360  14.4427  14.4489  14.4545  14.4597  14.4644  14.4687
 GAMMAs            1.4003   1.4000   1.3997   1.3995   1.3993   1.3991   1.3989   1.3987
 SON VEL,M/SEC     1421.8   1431.7   1441.6   1451.5   1461.3   1471.0   1480.7   1490.3

 TRANSPORT PROPERTIES (GASES ONLY)
   CONDUCTIVITY IN UNITS OF MILLIWATTS/(CM)(K)

 VISC,MILLIPOISE  0.00000  0.00001  0.00004  0.00028  0.00182  0.01070  0.04344  0.08565

  WITH EQUILIBRIUM REACTIONS

 Cp, KJ/(KG)(K)   14.4286  14.4360  14.4427  14.4489  14.4545  14.4597  14.4644  14.4687
 CONDUCTIVITY      0.0000   0.0000   0.0002   0.0017   0.0114   0.0713   0.3792   1.2321
 PRANDTL NUMBER    2.3355   2.3360   2.3360   2.3327   2.3087   2.1688   1.6567   1.0058

  WITH FROZEN REACTIONS

 Cp, KJ/(KG)(K)   14.4286  14.4360  14.4427  14.4489  14.4545  14.4597  14.4644  14.4687
 CONDUCTIVITY      0.0000   0.0000   0.0002   0.0017   0.0114   0.0713   0.3792   1.2321
 PRANDTL NUMBER    2.3355   2.3360   2.3360   2.3327   2.3087   2.1688   1.6567   1.0058

 MOLE FRACTIONS

 *H2              1.00000  1.00000  1.00000  1.00000  1.00000  1.00000  1.00000  1.00000

  * THERMODYNAMIC PROPERTIES FITTED TO 20000.K

 NOTE. WEIGHT FRACTION OF FUEL IN TOTAL FUELS AND OF OXIDANT IN TOTAL OXIDANTS









               THERMODYNAMIC EQUILIBRIUM PROPERTIES AT ASSIGNED

                           TEMPERATURE AND PRESSURE

 CASE =                

             REACTANT                    WT FRACTION      ENERGY      TEMP
                                          (SEE NOTE)     KJ/KG-MOL      K  
             H2                           1.0000000         0.000      0.000

 O/F=    0.00000  %FUEL=100.000000  R,EQ.RATIO= 0.000000  PHI,EQ.RATIO= 0.000000

 THERMODYNAMIC PROPERTIES

 P, BAR           0.01100  0.01100  0.01100  0.01100  0.01100  0.01100  0.01100  0.01200
 T, K              390.00   395.00   400.00   405.00   410.00   415.00   420.00   350.00
 RHO, KG/CU M    6.8385-4 6.7519-4 6.6675-4 6.5852-4 6.5049-4 6.4265-4 6.3500-4 8.3127-4
 H, KJ/KG         1323.47  1395.84  1468.23  1540.64  1613.06  1685.49  1757.93   745.34
 U, KJ/KG         -285.08  -233.33  -181.56  -129.78  -77.984  -26.174   25.648  -698.23
 G, KJ/KG        -32721.7 -33158.6 -33596.5 -34035.2 -34474.9 -34915.4 -35356.8 -29135.0
 S, KJ/(KG)(K)    87.2953  87.4797  87.6618  87.8417  88.0194  88.1950  88.3685  85.3725

 M, (1/n)           2.016    2.016    2.016    2.016    2.016    2.016    2.016    2.016
 (dLV/dLP)t      -1.00000 -1.00000 -1.00000 -1.00000 -1.00000 -1.00000 -1.00000 -1.00000
 (dLV/dLT)p        1.0000   1.0000   1.0000   1.0000   1.0000   1.0000   1.0000   1.0000
 Cp, KJ/(KG)(K)   14.4726  14.4762  14.4795  14.4825  14.4852  14.4877  14.4900  14.4286
 GAMMAs            1.3986   1.3984   1.3983   1.3982   1.3981   1.3980   1.3979   1.4003
 SON VEL,M/SEC     1499.9   1509.4   1518.9   1528.3   1537.6   1546.9   1556.1   1421.8

 TRANSPORT PROPERTIES (GASES ONLY)
   CONDUCTIVITY IN UNITS OF MILLIWATTS/(CM)(K)

 VISC,MILLIPOISE  0.10282  0.10723  0.10880  0.10984  0.11079  0.11170  0.11262  0.00000

  WITH EQUILIBRIUM REACTIONS

 Cp, KJ/(KG)(K)   14.4726  14.4762  14.4795  14.4825  14.4852  14.4877  14.4900  14.4286
 CONDUCTIVITY      1.9769   2.2207   2.2861   2.3143   2.3353   2.3549   2.3742   0.0000
 PRANDTL NUMBER    0.7527   0.6990   0.6891   0.6874   0.6872   0.6872   0.6873   2.3355

  WITH FROZEN REACTIONS

 Cp, KJ/(KG)(K)   14.4726  14.4762  14.4795  14.4825  14.4852  14.4877  14.4900  14.4286
 CONDUCTIVITY      1.9769   2.2207   2.2861   2.3143   2.3353   2.3549   2.3742   0.0000
 PRANDTL NUMBER    0.7527   0.6990   0.6891   0.6874   0.6872   0.6872   0.6873   2.3355

 MOLE FRACTIONS

 *H2              1.00000  1.00000  1.00000  1.00000  1.00000  1.00000  1.00000  1.00000

  * THERMODYNAMIC PROPERTIES FITTED TO 20000.K

 NOTE. WEIGHT FRACTION OF FUEL IN TOTAL FUELS AND OF OXIDANT IN TOTAL OXIDANTS









               THERMODYNAMIC EQUILIBRIUM PROPERTIES AT ASSIGNED

                           TEMPERATURE AND PRESSURE

 CASE =                

             REACTANT                    WT FRACTION      ENERGY      TEMP
                                          (SEE NOTE)     KJ/KG-MOL      K  
             H2                           1.0000000         0.000      0.000

 O/F=    0.00000  %FUEL=100.000000  R,EQ.RATIO= 0.000000  PHI,EQ.RATIO= 0.000000

 THERMODYNAMIC PROPERTIES

 P, BAR           0.01200  0.01200  0.01200  0.01200  0.01200  0.01200  0.01200  0.01200
 T, K              355.00   360.00   365.00   370.00   375.00   380.00   385.00   390.00
 RHO, KG/CU M    8.1956-4 8.0818-4 7.9711-4 7.8634-4 7.7585-4 7.6564-4 7.5570-4 7.4601-4
 H, KJ/KG          817.50   889.70   961.93  1034.19  1106.47  1178.78  1251.12  1323.47
 U, KJ/KG         -646.69  -595.12  -543.51  -491.87  -440.21  -388.52  -336.81  -285.08
 G, KJ/KG        -29562.4 -29990.8 -30420.2 -30850.5 -31281.9 -31714.2 -32147.5 -32581.7
 S, KJ/(KG)(K)    85.5772  85.7791  85.9783  86.1750  86.3690  86.5606  86.7497  86.9364

 M, (1/n)           2.016    2.016    2.016    2.016    2.016    2.016    2.016    2.016
 (dLV/dLP)t      -1.00000 -1.00000 -1.00000 -1.00000 -1.00000 -1.00000 -1.00000 -1.00000
 (dLV/dLT)p        1.0000   1.0000   1.0000   1.0000   1.0000   1.0000   1.0000   1.0000
 Cp, KJ/(KG)(K)   14.4360  14.4427  14.4489  14.4545  14.4597  14.4644  14.4687  14.4726
 GAMMAs            1.4000   1.3997   1.3995   1.3993   1.3991   1.3989   1.3987   1.3986
 SON VEL,M/SEC     1431.7   1441.6   1451.5   1461.3   1471.0   1480.7   1490.3   1499.9

 TRANSPORT PROPERTIES (GASES ONLY)
   CONDUCTIVITY IN UNITS OF MILLIWATTS/(CM)(K)

 VISC,MILLIPOISE  0.00001  0.00004  0.00028  0.00182  0.01070  0.04344  0.08565  0.10282

  WITH EQUILIBRIUM REACTIONS

 Cp, KJ/(KG)(K)   14.4360  14.4427  14.4489  14.4545  14.4597  14.4644  14.4687  14.4726
 CONDUCTIVITY      0.0000   0.0002   0.0017   0.0114   0.0713   0.3792   1.2321   1.9769
 PRANDTL NUMBER    2.3360   2.3360   2.3327   2.3087   2.1688   1.6567   1.0058   0.7527

  WITH FROZEN REACTIONS

 Cp, KJ/(KG)(K)   14.4360  14.4427  14.4489  14.4545  14.4597  14.4644  14.4687  14.4726
 CONDUCTIVITY      0.0000   0.0002   0.0017   0.0114   0.0713   0.3792   1.2321   1.9769
 PRANDTL NUMBER    2.3360   2.3360   2.3327   2.3087   2.1688   1.6567   1.0058   0.7527

 MOLE FRACTIONS

 *H2              1.00000  1.00000  1.00000  1.00000  1.00000  1.00000  1.00000  1.00000

  * THERMODYNAMIC PROPERTIES FITTED TO 20000.K

 NOTE. WEIGHT FRACTION OF FUEL IN TOTAL FUELS AND OF OXIDANT IN TOTAL OXIDANTS









               THERMODYNAMIC EQUILIBRIUM PROPERTIES AT ASSIGNED

                           TEMPERATURE AND PRESSURE

 CASE =                

             REACTANT                    WT FRACTION      ENERGY      TEMP
                                          (SEE NOTE)     KJ/KG-MOL      K  
             H2                           1.0000000         0.000      0.000

 O/F=    0.00000  %FUEL=100.000000  R,EQ.RATIO= 0.000000  PHI,EQ.RATIO= 0.000000

 THERMODYNAMIC PROPERTIES

 P, BAR           0.01200  0.01200  0.01200  0.01200  0.01200  0.01200  0.01320  0.01320
 T, K              395.00   400.00   405.00   410.00   415.00   420.00   350.00   355.00
 RHO, KG/CU M    7.3657-4 7.2736-4 7.1838-4 7.0962-4 7.0107-4 6.9273-4 9.1440-4 9.0152-4
 H, KJ/KG         1395.84  1468.23  1540.64  1613.06  1685.49  1757.93   745.34   817.50
 U, KJ/KG         -233.33  -181.56  -129.78  -77.984  -26.174   25.648  -698.23  -646.69
 G, KJ/KG        -33016.9 -33452.9 -33889.9 -34327.8 -34766.5 -35206.1 -28997.4 -29422.8
 S, KJ/(KG)(K)    87.1208  87.3029  87.4828  87.6605  87.8361  88.0096  84.9794  85.1840

 M, (1/n)           2.016    2.016    2.016    2.016    2.016    2.016    2.016    2.016
 (dLV/dLP)t      -1.00000 -1.00000 -1.00000 -1.00000 -1.00000 -1.00000 -1.00000 -1.00000
 (dLV/dLT)p        1.0000   1.0000   1.0000   1.0000   1.0000   1.0000   1.0000   1.0000
 Cp, KJ/(KG)(K)   14.4762  14.4795  14.4825  14.4852  14.4877  14.4900  14.4286  14.4360
 GAMMAs            1.3984   1.3983   1.3982   1.3981   1.3980   1.3979   1.4003   1.4000
 SON VEL,M/SEC     1509.4   1518.9   1528.3   1537.6   1546.9   1556.1   1421.8   1431.7

 TRANSPORT PROPERTIES (GASES ONLY)
   CONDUCTIVITY IN UNITS OF MILLIWATTS/(CM)(K)

 VISC,MILLIPOISE  0.10723  0.10880  0.10984  0.11079  0.11170  0.11262  0.00000  0.00001

  WITH EQUILIBRIUM REACTIONS

 Cp, KJ/(KG)(K)   14.4762  14.4795  14.4825  14.4852  14.4877  14.4900  14.4286  14.4360
 CONDUCTIVITY      2.2207   2.2861   2.3143   2.3353   2.3549   2.3742   0.0000   0.0000
 PRANDTL NUMBER    0.6990   0.6891   0.6874   0.6872   0.6872   0.6873   2.3355   2.3360

  WITH FROZEN REACTIONS

 Cp, KJ/(KG)(K)   14.4762  14.4795  14.4825  14.4852  14.4877  14.4900  14.4286  14.4360
 CONDUCTIVITY      2.2207   2.2861   2.3143   2.3353   2.3549   2.3742   0.0000   0.0000
 PRANDTL NUMBER    0.6990   0.6891   0.6874   0.6872   0.6872   0.6873   2.3355   2.3360

 MOLE FRACTIONS

 *H2              1.00000  1.00000  1.00000  1.00000  1.00000  1.00000  1.00000  1.00000

  * THERMODYNAMIC PROPERTIES FITTED TO 20000.K

 NOTE. WEIGHT FRACTION OF FUEL IN TOTAL FUELS AND OF OXIDANT IN TOTAL OXIDANTS









               THERMODYNAMIC EQUILIBRIUM PROPERTIES AT ASSIGNED

                           TEMPERATURE AND PRESSURE

 CASE =                

             REACTANT                    WT FRACTION      ENERGY      TEMP
                                          (SEE NOTE)     KJ/KG-MOL      K  
             H2                           1.0000000         0.000      0.000

 O/F=    0.00000  %FUEL=100.000000  R,EQ.RATIO= 0.000000  PHI,EQ.RATIO= 0.000000

 THERMODYNAMIC PROPERTIES

 P, BAR           0.01320  0.01320  0.01320  0.01320  0.01320  0.01320  0.01320  0.01320
 T, K              360.00   365.00   370.00   375.00   380.00   385.00   390.00   395.00
 RHO, KG/CU M    8.8900-4 8.7682-4 8.6497-4 8.5344-4 8.4221-4 8.3127-4 8.2061-4 8.1023-4
 H, KJ/KG          889.70   961.93  1034.19  1106.47  1178.78  1251.12  1323.47  1395.84
 U, KJ/KG         -595.12  -543.51  -491.87  -440.21  -388.52  -336.81  -285.08  -233.33
 G, KJ/KG        -29849.3 -30276.7 -30705.1 -31134.5 -31564.9 -31996.2 -32428.4 -32861.6
 S, KJ/(KG)(K)    85.3860  85.5852  85.7819  85.9759  86.1675  86.3566  86.5433  86.7277

 M, (1/n)           2.016    2.016    2.016    2.016    2.016    2.016    2.016    2.016
 (dLV/dLP)t      -1.00000 -1.00000 -1.00000 -1.00000 -1.00000 -1.00000 -1.00000 -1.00000
 (dLV/dLT)p        1.0000   1.0000   1.0000   1.0000   1.0000   1.0000   1.0000   1.0000
 Cp, KJ/(KG)(K)   14.4427  14.4489  14.4545  14.4597  14.4644  14.4687  14.4726  14.4762
 GAMMAs            1.3997   1.3995   1.3993   1.3991   1.3989   1.3987   1.3986   1.3984
 SON VEL,M/SEC     1441.6   1451.5   1461.3   1471.0   1480.7   1490.3   1499.9   1509.4

 TRANSPORT PROPERTIES (GASES ONLY)
   CONDUCTIVITY IN UNITS OF MILLIWATTS/(CM)(K)

 VISC,MILLIPOISE  0.00004  0.00028  0.00182  0.01070  0.04344  0.08565  0.10282  0.10723

  WITH EQUILIBRIUM REACTIONS

 Cp, KJ/(KG)(K)   14.4427  14.4489  14.4545  14.4597  14.4644  14.4687  14.4726  14.4762
 CONDUCTIVITY      0.0002   0.0017   0.0114   0.0713   0.3792   1.2321   1.9769   2.2207
 PRANDTL NUMBER    2.3360   2.3327   2.3087   2.1688   1.6567   1.0058   0.7527   0.6990

  WITH FROZEN REACTIONS

 Cp, KJ/(KG)(K)   14.4427  14.4489  14.4545  14.4597  14.4644  14.4687  14.4726  14.4762
 CONDUCTIVITY      0.0002   0.0017   0.0114   0.0713   0.3792   1.2321   1.9769   2.2207
 PRANDTL NUMBER    2.3360   2.3327   2.3087   2.1688   1.6567   1.0058   0.7527   0.6990

 MOLE FRACTIONS

 *H2              1.00000  1.00000  1.00000  1.00000  1.00000  1.00000  1.00000  1.00000

  * THERMODYNAMIC PROPERTIES FITTED TO 20000.K

 NOTE. WEIGHT FRACTION OF FUEL IN TOTAL FUELS AND OF OXIDANT IN TOTAL OXIDANTS









               THERMODYNAMIC EQUILIBRIUM PROPERTIES AT ASSIGNED

                           TEMPERATURE AND PRESSURE

 CASE =                

             REACTANT                    WT FRACTION      ENERGY      TEMP
                                          (SEE NOTE)     KJ/KG-MOL      K  
             H2                           1.0000000         0.000      0.000

 O/F=    0.00000  %FUEL=100.000000  R,EQ.RATIO= 0.000000  PHI,EQ.RATIO= 0.000000

 THERMODYNAMIC PROPERTIES

 P, BAR           0.01320  0.01320  0.01320  0.01320  0.01320  0.01480  0.01480  0.01480
 T, K              400.00   405.00   410.00   415.00   420.00   350.00   355.00   360.00
 RHO, KG/CU M    8.0010-4 7.9022-4 7.8058-4 7.7118-4 7.6200-4 1.0252-3 1.0108-3 9.9676-4
 H, KJ/KG         1468.23  1540.64  1613.06  1685.49  1757.93   745.34   817.50   889.70
 U, KJ/KG         -181.56  -129.78  -77.984  -26.174   25.648  -698.23  -646.69  -595.12
 G, KJ/KG        -33295.7 -33730.7 -34166.6 -34603.4 -35041.0 -28832.3 -29255.3 -29679.4
 S, KJ/(KG)(K)    86.9098  87.0897  87.2674  87.4430  87.6165  84.5075  84.7122  84.9141

 M, (1/n)           2.016    2.016    2.016    2.016    2.016    2.016    2.016    2.016
 (dLV/dLP)t      -1.00000 -1.00000 -1.00000 -1.00000 -1.00000 -1.00000 -1.00000 -1.00000
 (dLV/dLT)p        1.0000   1.0000   1.0000   1.0000   1.0000   1.0000   1.0000   1.0000
 Cp, KJ/(KG)(K)   14.4795  14.4825  14.4852  14.4877  14.4900  14.4286  14.4360  14.4427
 GAMMAs            1.3983   1.3982   1.3981   1.3980   1.3979   1.4003   1.4000   1.3997
 SON VEL,M/SEC     1518.9   1528.3   1537.6   1546.9   1556.1   1421.8   1431.7   1441.6

 TRANSPORT PROPERTIES (GASES ONLY)
   CONDUCTIVITY IN UNITS OF MILLIWATTS/(CM)(K)

 VISC,MILLIPOISE  0.10880  0.10984  0.11079  0.11170  0.11262  0.00000  0.00001  0.00004

  WITH EQUILIBRIUM REACTIONS

 Cp, KJ/(KG)(K)   14.4795  14.4825  14.4852  14.4877  14.4900  14.4286  14.4360  14.4427
 CONDUCTIVITY      2.2861   2.3143   2.3353   2.3549   2.3742   0.0000   0.0000   0.0002
 PRANDTL NUMBER    0.6891   0.6874   0.6872   0.6872   0.6873   2.3355   2.3360   2.3360

  WITH FROZEN REACTIONS

 Cp, KJ/(KG)(K)   14.4795  14.4825  14.4852  14.4877  14.4900  14.4286  14.4360  14.4427
 CONDUCTIVITY      2.2861   2.3143   2.3353   2.3549   2.3742   0.0000   0.0000   0.0002
 PRANDTL NUMBER    0.6891   0.6874   0.6872   0.6872   0.6873   2.3355   2.3360   2.3360

 MOLE FRACTIONS

 *H2              1.00000  1.00000  1.00000  1.00000  1.00000  1.00000  1.00000  1.00000

  * THERMODYNAMIC PROPERTIES FITTED TO 20000.K

 NOTE. WEIGHT FRACTION OF FUEL IN TOTAL FUELS AND OF OXIDANT IN TOTAL OXIDANTS









               THERMODYNAMIC EQUILIBRIUM PROPERTIES AT ASSIGNED

                           TEMPERATURE AND PRESSURE

 CASE =                

             REACTANT                    WT FRACTION      ENERGY      TEMP
                                          (SEE NOTE)     KJ/KG-MOL      K  
             H2                           1.0000000         0.000      0.000

 O/F=    0.00000  %FUEL=100.000000  R,EQ.RATIO= 0.000000  PHI,EQ.RATIO= 0.000000

 THERMODYNAMIC PROPERTIES

 P, BAR           0.01480  0.01480  0.01480  0.01480  0.01480  0.01480  0.01480  0.01480
 T, K              365.00   370.00   375.00   380.00   385.00   390.00   395.00   400.00
 RHO, KG/CU M    9.8310-4 9.6982-4 9.5689-4 9.4430-4 9.3203-4 9.2008-4 9.0844-4 8.9708-4
 H, KJ/KG          961.93  1034.19  1106.47  1178.78  1251.12  1323.47  1395.84  1468.23
 U, KJ/KG         -543.51  -491.87  -440.21  -388.52  -336.81  -285.08  -233.33  -181.56
 G, KJ/KG        -30104.4 -30530.5 -30957.5 -31385.5 -31814.5 -32244.4 -32675.2 -33106.9
 S, KJ/(KG)(K)    85.1133  85.3100  85.5040  85.6956  85.8847  86.0714  86.2558  86.4379

 M, (1/n)           2.016    2.016    2.016    2.016    2.016    2.016    2.016    2.016
 (dLV/dLP)t      -1.00000 -1.00000 -1.00000 -1.00000 -1.00000 -1.00000 -1.00000 -1.00000
 (dLV/dLT)p        1.0000   1.0000   1.0000   1.0000   1.0000   1.0000   1.0000   1.0000
 Cp, KJ/(KG)(K)   14.4489  14.4545  14.4597  14.4644  14.4687  14.4726  14.4762  14.4795
 GAMMAs            1.3995   1.3993   1.3991   1.3989   1.3987   1.3986   1.3984   1.3983
 SON VEL,M/SEC     1451.5   1461.3   1471.0   1480.7   1490.3   1499.9   1509.4   1518.9

 TRANSPORT PROPERTIES (GASES ONLY)
   CONDUCTIVITY IN UNITS OF MILLIWATTS/(CM)(K)

 VISC,MILLIPOISE  0.00028  0.00182  0.01070  0.04344  0.08565  0.10282  0.10723  0.10880

  WITH EQUILIBRIUM REACTIONS

 Cp, KJ/(KG)(K)   14.4489  14.4545  14.4597  14.4644  14.4687  14.4726  14.4762  14.4795
 CONDUCTIVITY      0.0017   0.0114   0.0713   0.3792   1.2321   1.9769   2.2207   2.2861
 PRANDTL NUMBER    2.3327   2.3087   2.1688   1.6567   1.0058   0.7527   0.6990   0.6891

  WITH FROZEN REACTIONS

 Cp, KJ/(KG)(K)   14.4489  14.4545  14.4597  14.4644  14.4687  14.4726  14.4762  14.4795
 CONDUCTIVITY      0.0017   0.0114   0.0713   0.3792   1.2321   1.9769   2.2207   2.2861
 PRANDTL NUMBER    2.3327   2.3087   2.1688   1.6567   1.0058   0.7527   0.6990   0.6891

 MOLE FRACTIONS

 *H2              1.00000  1.00000  1.00000  1.00000  1.00000  1.00000  1.00000  1.00000

  * THERMODYNAMIC PROPERTIES FITTED TO 20000.K

 NOTE. WEIGHT FRACTION OF FUEL IN TOTAL FUELS AND OF OXIDANT IN TOTAL OXIDANTS









               THERMODYNAMIC EQUILIBRIUM PROPERTIES AT ASSIGNED

                           TEMPERATURE AND PRESSURE

 CASE =                

             REACTANT                    WT FRACTION      ENERGY      TEMP
                                          (SEE NOTE)     KJ/KG-MOL      K  
             H2                           1.0000000         0.000      0.000

 O/F=    0.00000  %FUEL=100.000000  R,EQ.RATIO= 0.000000  PHI,EQ.RATIO= 0.000000

 THERMODYNAMIC PROPERTIES

 P, BAR           0.01480  0.01480  0.01480  0.01480  0.01650  0.01650  0.01650  0.01650
 T, K              405.00   410.00   415.00   420.00   350.00   355.00   360.00   365.00
 RHO, KG/CU M    8.8601-4 8.7520-4 8.6466-4 8.5436-4 1.1430-3 1.1269-3 1.1112-3 1.0960-3
 H, KJ/KG         1540.64  1613.06  1685.49  1757.93   745.34   817.50   889.70   961.93
 U, KJ/KG         -129.78  -77.984  -26.174   25.648  -698.23  -646.69  -595.12  -543.51
 G, KJ/KG        -33539.6 -33973.1 -34407.5 -34842.8 -28675.3 -29096.1 -29517.9 -29940.7
 S, KJ/(KG)(K)    86.6178  86.7955  86.9711  87.1446  84.0590  84.2637  84.4656  84.6649

 M, (1/n)           2.016    2.016    2.016    2.016    2.016    2.016    2.016    2.016
 (dLV/dLP)t      -1.00000 -1.00000 -1.00000 -1.00000 -1.00000 -1.00000 -1.00000 -1.00000
 (dLV/dLT)p        1.0000   1.0000   1.0000   1.0000   1.0000   1.0000   1.0000   1.0000
 Cp, KJ/(KG)(K)   14.4825  14.4852  14.4877  14.4900  14.4286  14.4360  14.4427  14.4489
 GAMMAs            1.3982   1.3981   1.3980   1.3979   1.4003   1.4000   1.3997   1.3995
 SON VEL,M/SEC     1528.3   1537.6   1546.9   1556.1   1421.8   1431.7   1441.6   1451.5

 TRANSPORT PROPERTIES (GASES ONLY)
   CONDUCTIVITY IN UNITS OF MILLIWATTS/(CM)(K)

 VISC,MILLIPOISE  0.10984  0.11079  0.11170  0.11262  0.00000  0.00001  0.00004  0.00028

  WITH EQUILIBRIUM REACTIONS

 Cp, KJ/(KG)(K)   14.4825  14.4852  14.4877  14.4900  14.4286  14.4360  14.4427  14.4489
 CONDUCTIVITY      2.3143   2.3353   2.3549   2.3742   0.0000   0.0000   0.0002   0.0017
 PRANDTL NUMBER    0.6874   0.6872   0.6872   0.6873   2.3355   2.3360   2.3360   2.3327

  WITH FROZEN REACTIONS

 Cp, KJ/(KG)(K)   14.4825  14.4852  14.4877  14.4900  14.4286  14.4360  14.4427  14.4489
 CONDUCTIVITY      2.3143   2.3353   2.3549   2.3742   0.0000   0.0000   0.0002   0.0017
 PRANDTL NUMBER    0.6874   0.6872   0.6872   0.6873   2.3355   2.3360   2.3360   2.3327

 MOLE FRACTIONS

 *H2              1.00000  1.00000  1.00000  1.00000  1.00000  1.00000  1.00000  1.00000

  * THERMODYNAMIC PROPERTIES FITTED TO 20000.K

 NOTE. WEIGHT FRACTION OF FUEL IN TOTAL FUELS AND OF OXIDANT IN TOTAL OXIDANTS









               THERMODYNAMIC EQUILIBRIUM PROPERTIES AT ASSIGNED

                           TEMPERATURE AND PRESSURE

 CASE =                

             REACTANT                    WT FRACTION      ENERGY      TEMP
                                          (SEE NOTE)     KJ/KG-MOL      K  
             H2                           1.0000000         0.000      0.000

 O/F=    0.00000  %FUEL=100.000000  R,EQ.RATIO= 0.000000  PHI,EQ.RATIO= 0.000000

 THERMODYNAMIC PROPERTIES

 P, BAR           0.01650  0.01650  0.01650  0.01650  0.01650  0.01650  0.01650  0.01650
 T, K              370.00   375.00   380.00   385.00   390.00   395.00   400.00   405.00
 RHO, KG/CU M    1.0812-3 1.0668-3 1.0528-3 1.0391-3 1.0258-3 1.0128-3 1.0001-3 9.8778-4
 H, KJ/KG         1034.19  1106.47  1178.78  1251.12  1323.47  1395.84  1468.23  1540.64
 U, KJ/KG         -491.87  -440.21  -388.52  -336.81  -285.08  -233.33  -181.56  -129.78
 G, KJ/KG        -30364.6 -30789.4 -31215.1 -31641.8 -32069.5 -32498.1 -32927.5 -33357.9
 S, KJ/(KG)(K)    84.8615  85.0556  85.2471  85.4362  85.6229  85.8073  85.9894  86.1693

 M, (1/n)           2.016    2.016    2.016    2.016    2.016    2.016    2.016    2.016
 (dLV/dLP)t      -1.00000 -1.00000 -1.00000 -1.00000 -1.00000 -1.00000 -1.00000 -1.00000
 (dLV/dLT)p        1.0000   1.0000   1.0000   1.0000   1.0000   1.0000   1.0000   1.0000
 Cp, KJ/(KG)(K)   14.4545  14.4597  14.4644  14.4687  14.4726  14.4762  14.4795  14.4825
 GAMMAs            1.3993   1.3991   1.3989   1.3987   1.3986   1.3984   1.3983   1.3982
 SON VEL,M/SEC     1461.3   1471.0   1480.7   1490.3   1499.9   1509.4   1518.9   1528.3

 TRANSPORT PROPERTIES (GASES ONLY)
   CONDUCTIVITY IN UNITS OF MILLIWATTS/(CM)(K)

 VISC,MILLIPOISE  0.00182  0.01070  0.04344  0.08565  0.10282  0.10723  0.10880  0.10984

  WITH EQUILIBRIUM REACTIONS

 Cp, KJ/(KG)(K)   14.4545  14.4597  14.4644  14.4687  14.4726  14.4762  14.4795  14.4825
 CONDUCTIVITY      0.0114   0.0713   0.3792   1.2321   1.9769   2.2207   2.2861   2.3143
 PRANDTL NUMBER    2.3087   2.1688   1.6567   1.0058   0.7527   0.6990   0.6891   0.6874

  WITH FROZEN REACTIONS

 Cp, KJ/(KG)(K)   14.4545  14.4597  14.4644  14.4687  14.4726  14.4762  14.4795  14.4825
 CONDUCTIVITY      0.0114   0.0713   0.3792   1.2321   1.9769   2.2207   2.2861   2.3143
 PRANDTL NUMBER    2.3087   2.1688   1.6567   1.0058   0.7527   0.6990   0.6891   0.6874

 MOLE FRACTIONS

 *H2              1.00000  1.00000  1.00000  1.00000  1.00000  1.00000  1.00000  1.00000

  * THERMODYNAMIC PROPERTIES FITTED TO 20000.K

 NOTE. WEIGHT FRACTION OF FUEL IN TOTAL FUELS AND OF OXIDANT IN TOTAL OXIDANTS









               THERMODYNAMIC EQUILIBRIUM PROPERTIES AT ASSIGNED

                           TEMPERATURE AND PRESSURE

 CASE =                

             REACTANT                    WT FRACTION      ENERGY      TEMP
                                          (SEE NOTE)     KJ/KG-MOL      K  
             H2                           1.0000000         0.000      0.000

 O/F=    0.00000  %FUEL=100.000000  R,EQ.RATIO= 0.000000  PHI,EQ.RATIO= 0.000000

 THERMODYNAMIC PROPERTIES

 P, BAR           0.01650  0.01650  0.01650  0.01800  0.01800  0.01800  0.01800  0.01800
 T, K              410.00   415.00   420.00   350.00   355.00   360.00   365.00   370.00
 RHO, KG/CU M    9.7573-4 9.6397-4 9.5250-4 1.2469-3 1.2293-3 1.2123-3 1.1957-3 1.1795-3
 H, KJ/KG         1613.06  1685.49  1757.93   745.34   817.50   889.70   961.93  1034.19
 U, KJ/KG         -77.984  -26.174   25.648  -698.23  -646.69  -595.12  -543.51  -491.87
 G, KJ/KG        -33789.2 -34221.4 -34654.5 -28549.7 -28968.7 -29388.7 -29809.8 -30231.8
 S, KJ/(KG)(K)    86.3470  86.5226  86.6962  83.7002  83.9048  84.1067  84.3060  84.5026

 M, (1/n)           2.016    2.016    2.016    2.016    2.016    2.016    2.016    2.016
 (dLV/dLP)t      -1.00000 -1.00000 -1.00000 -1.00000 -1.00000 -1.00000 -1.00000 -1.00000
 (dLV/dLT)p        1.0000   1.0000   1.0000   1.0000   1.0000   1.0000   1.0000   1.0000
 Cp, KJ/(KG)(K)   14.4852  14.4877  14.4900  14.4286  14.4360  14.4427  14.4489  14.4545
 GAMMAs            1.3981   1.3980   1.3979   1.4003   1.4000   1.3997   1.3995   1.3993
 SON VEL,M/SEC     1537.6   1546.9   1556.1   1421.8   1431.7   1441.6   1451.5   1461.3

 TRANSPORT PROPERTIES (GASES ONLY)
   CONDUCTIVITY IN UNITS OF MILLIWATTS/(CM)(K)

 VISC,MILLIPOISE  0.11079  0.11170  0.11262  0.00000  0.00001  0.00004  0.00028  0.00182

  WITH EQUILIBRIUM REACTIONS

 Cp, KJ/(KG)(K)   14.4852  14.4877  14.4900  14.4286  14.4360  14.4427  14.4489  14.4545
 CONDUCTIVITY      2.3353   2.3549   2.3742   0.0000   0.0000   0.0002   0.0017   0.0114
 PRANDTL NUMBER    0.6872   0.6872   0.6873   2.3355   2.3360   2.3360   2.3327   2.3087

  WITH FROZEN REACTIONS

 Cp, KJ/(KG)(K)   14.4852  14.4877  14.4900  14.4286  14.4360  14.4427  14.4489  14.4545
 CONDUCTIVITY      2.3353   2.3549   2.3742   0.0000   0.0000   0.0002   0.0017   0.0114
 PRANDTL NUMBER    0.6872   0.6872   0.6873   2.3355   2.3360   2.3360   2.3327   2.3087

 MOLE FRACTIONS

 *H2              1.00000  1.00000  1.00000  1.00000  1.00000  1.00000  1.00000  1.00000

  * THERMODYNAMIC PROPERTIES FITTED TO 20000.K

 NOTE. WEIGHT FRACTION OF FUEL IN TOTAL FUELS AND OF OXIDANT IN TOTAL OXIDANTS









               THERMODYNAMIC EQUILIBRIUM PROPERTIES AT ASSIGNED

                           TEMPERATURE AND PRESSURE

 CASE =                

             REACTANT                    WT FRACTION      ENERGY      TEMP
                                          (SEE NOTE)     KJ/KG-MOL      K  
             H2                           1.0000000         0.000      0.000

 O/F=    0.00000  %FUEL=100.000000  R,EQ.RATIO= 0.000000  PHI,EQ.RATIO= 0.000000

 THERMODYNAMIC PROPERTIES

 P, BAR           0.01800  0.01800  0.01800  0.01800  0.01800  0.01800  0.01800  0.01800
 T, K              375.00   380.00   385.00   390.00   395.00   400.00   405.00   410.00
 RHO, KG/CU M    1.1638-3 1.1485-3 1.1336-3 1.1190-3 1.1049-3 1.0910-3 1.0776-3 1.0644-3
 H, KJ/KG         1106.47  1178.78  1251.12  1323.47  1395.84  1468.23  1540.64  1613.06
 U, KJ/KG         -440.21  -388.52  -336.81  -285.08  -233.33  -181.56  -129.78  -77.984
 G, KJ/KG        -30654.8 -31078.7 -31503.7 -31929.5 -32356.3 -32784.0 -33212.6 -33642.1
 S, KJ/(KG)(K)    84.6967  84.8882  85.0773  85.2641  85.4484  85.6306  85.8104  85.9882

 M, (1/n)           2.016    2.016    2.016    2.016    2.016    2.016    2.016    2.016
 (dLV/dLP)t      -1.00000 -1.00000 -1.00000 -1.00000 -1.00000 -1.00000 -1.00000 -1.00000
 (dLV/dLT)p        1.0000   1.0000   1.0000   1.0000   1.0000   1.0000   1.0000   1.0000
 Cp, KJ/(KG)(K)   14.4597  14.4644  14.4687  14.4726  14.4762  14.4795  14.4825  14.4852
 GAMMAs            1.3991   1.3989   1.3987   1.3986   1.3984   1.3983   1.3982   1.3981
 SON VEL,M/SEC     1471.0   1480.7   1490.3   1499.9   1509.4   1518.9   1528.3   1537.6

 TRANSPORT PROPERTIES (GASES ONLY)
   CONDUCTIVITY IN UNITS OF MILLIWATTS/(CM)(K)

 VISC,MILLIPOISE  0.01070  0.04344  0.08565  0.10282  0.10723  0.10880  0.10984  0.11079

  WITH EQUILIBRIUM REACTIONS

 Cp, KJ/(KG)(K)   14.4597  14.4644  14.4687  14.4726  14.4762  14.4795  14.4825  14.4852
 CONDUCTIVITY      0.0713   0.3792   1.2321   1.9769   2.2207   2.2861   2.3143   2.3353
 PRANDTL NUMBER    2.1688   1.6567   1.0058   0.7527   0.6990   0.6891   0.6874   0.6872

  WITH FROZEN REACTIONS

 Cp, KJ/(KG)(K)   14.4597  14.4644  14.4687  14.4726  14.4762  14.4795  14.4825  14.4852
 CONDUCTIVITY      0.0713   0.3792   1.2321   1.9769   2.2207   2.2861   2.3143   2.3353
 PRANDTL NUMBER    2.1688   1.6567   1.0058   0.7527   0.6990   0.6891   0.6874   0.6872

 MOLE FRACTIONS

 *H2              1.00000  1.00000  1.00000  1.00000  1.00000  1.00000  1.00000  1.00000

  * THERMODYNAMIC PROPERTIES FITTED TO 20000.K

 NOTE. WEIGHT FRACTION OF FUEL IN TOTAL FUELS AND OF OXIDANT IN TOTAL OXIDANTS









               THERMODYNAMIC EQUILIBRIUM PROPERTIES AT ASSIGNED

                           TEMPERATURE AND PRESSURE

 CASE =                

             REACTANT                    WT FRACTION      ENERGY      TEMP
                                          (SEE NOTE)     KJ/KG-MOL      K  
             H2                           1.0000000         0.000      0.000

 O/F=    0.00000  %FUEL=100.000000  R,EQ.RATIO= 0.000000  PHI,EQ.RATIO= 0.000000

 THERMODYNAMIC PROPERTIES

 P, BAR           0.01800  0.01800  0.02000  0.02000  0.02000  0.02000  0.02000  0.02000
 T, K              415.00   420.00   350.00   355.00   360.00   365.00   370.00   375.00
 RHO, KG/CU M    1.0516-3 1.0391-3 1.3855-3 1.3659-3 1.3470-3 1.3285-3 1.3106-3 1.2931-3
 H, KJ/KG         1685.49  1757.93   745.34   817.50   889.70   961.93  1034.19  1106.47
 U, KJ/KG         -26.174   25.648  -698.23  -646.69  -595.12  -543.51  -491.87  -440.21
 G, KJ/KG        -34072.5 -34503.7 -28397.6 -28814.4 -29232.3 -29651.1 -30071.0 -30491.8
 S, KJ/(KG)(K)    86.1638  86.3373  83.2656  83.4703  83.6722  83.8714  84.0681  84.2621

 M, (1/n)           2.016    2.016    2.016    2.016    2.016    2.016    2.016    2.016
 (dLV/dLP)t      -1.00000 -1.00000 -1.00000 -1.00000 -1.00000 -1.00000 -1.00000 -1.00000
 (dLV/dLT)p        1.0000   1.0000   1.0000   1.0000   1.0000   1.0000   1.0000   1.0000
 Cp, KJ/(KG)(K)   14.4877  14.4900  14.4286  14.4360  14.4427  14.4489  14.4545  14.4597
 GAMMAs            1.3980   1.3979   1.4003   1.4000   1.3997   1.3995   1.3993   1.3991
 SON VEL,M/SEC     1546.9   1556.1   1421.8   1431.7   1441.6   1451.5   1461.3   1471.0

 TRANSPORT PROPERTIES (GASES ONLY)
   CONDUCTIVITY IN UNITS OF MILLIWATTS/(CM)(K)

 VISC,MILLIPOISE  0.11170  0.11262  0.00000  0.00001  0.00004  0.00028  0.00182  0.01070

  WITH EQUILIBRIUM REACTIONS

 Cp, KJ/(KG)(K)   14.4877  14.4900  14.4286  14.4360  14.4427  14.4489  14.4545  14.4597
 CONDUCTIVITY      2.3549   2.3742   0.0000   0.0000   0.0002   0.0017   0.0114   0.0713
 PRANDTL NUMBER    0.6872   0.6873   2.3355   2.3360   2.3360   2.3327   2.3087   2.1688

  WITH FROZEN REACTIONS

 Cp, KJ/(KG)(K)   14.4877  14.4900  14.4286  14.4360  14.4427  14.4489  14.4545  14.4597
 CONDUCTIVITY      2.3549   2.3742   0.0000   0.0000   0.0002   0.0017   0.0114   0.0713
 PRANDTL NUMBER    0.6872   0.6873   2.3355   2.3360   2.3360   2.3327   2.3087   2.1688

 MOLE FRACTIONS

 *H2              1.00000  1.00000  1.00000  1.00000  1.00000  1.00000  1.00000  1.00000

  * THERMODYNAMIC PROPERTIES FITTED TO 20000.K

 NOTE. WEIGHT FRACTION OF FUEL IN TOTAL FUELS AND OF OXIDANT IN TOTAL OXIDANTS









               THERMODYNAMIC EQUILIBRIUM PROPERTIES AT ASSIGNED

                           TEMPERATURE AND PRESSURE

 CASE =                

             REACTANT                    WT FRACTION      ENERGY      TEMP
                                          (SEE NOTE)     KJ/KG-MOL      K  
             H2                           1.0000000         0.000      0.000

 O/F=    0.00000  %FUEL=100.000000  R,EQ.RATIO= 0.000000  PHI,EQ.RATIO= 0.000000

 THERMODYNAMIC PROPERTIES

 P, BAR           0.02000  0.02000  0.02000  0.02000  0.02000  0.02000  0.02000  0.02000
 T, K              380.00   385.00   390.00   395.00   400.00   405.00   410.00   415.00
 RHO, KG/CU M    1.2761-3 1.2595-3 1.2434-3 1.2276-3 1.2123-3 1.1973-3 1.1827-3 1.1685-3
 H, KJ/KG         1178.78  1251.12  1323.47  1395.84  1468.23  1540.64  1613.06  1685.49
 U, KJ/KG         -388.52  -336.81  -285.08  -233.33  -181.56  -129.78  -77.984  -26.174
 G, KJ/KG        -30913.6 -31336.4 -31760.0 -32184.6 -32610.2 -33036.6 -33463.9 -33892.1
 S, KJ/(KG)(K)    84.4537  84.6428  84.8295  85.0139  85.1960  85.3759  85.5536  85.7292

 M, (1/n)           2.016    2.016    2.016    2.016    2.016    2.016    2.016    2.016
 (dLV/dLP)t      -1.00000 -1.00000 -1.00000 -1.00000 -1.00000 -1.00000 -1.00000 -1.00000
 (dLV/dLT)p        1.0000   1.0000   1.0000   1.0000   1.0000   1.0000   1.0000   1.0000
 Cp, KJ/(KG)(K)   14.4644  14.4687  14.4726  14.4762  14.4795  14.4825  14.4852  14.4877
 GAMMAs            1.3989   1.3987   1.3986   1.3984   1.3983   1.3982   1.3981   1.3980
 SON VEL,M/SEC     1480.7   1490.3   1499.9   1509.4   1518.9   1528.3   1537.6   1546.9

 TRANSPORT PROPERTIES (GASES ONLY)
   CONDUCTIVITY IN UNITS OF MILLIWATTS/(CM)(K)

 VISC,MILLIPOISE  0.04344  0.08565  0.10282  0.10723  0.10880  0.10984  0.11079  0.11170

  WITH EQUILIBRIUM REACTIONS

 Cp, KJ/(KG)(K)   14.4644  14.4687  14.4726  14.4762  14.4795  14.4825  14.4852  14.4877
 CONDUCTIVITY      0.3792   1.2321   1.9769   2.2207   2.2861   2.3143   2.3353   2.3549
 PRANDTL NUMBER    1.6567   1.0058   0.7527   0.6990   0.6891   0.6874   0.6872   0.6872

  WITH FROZEN REACTIONS

 Cp, KJ/(KG)(K)   14.4644  14.4687  14.4726  14.4762  14.4795  14.4825  14.4852  14.4877
 CONDUCTIVITY      0.3792   1.2321   1.9769   2.2207   2.2861   2.3143   2.3353   2.3549
 PRANDTL NUMBER    1.6567   1.0058   0.7527   0.6990   0.6891   0.6874   0.6872   0.6872

 MOLE FRACTIONS

 *H2              1.00000  1.00000  1.00000  1.00000  1.00000  1.00000  1.00000  1.00000

  * THERMODYNAMIC PROPERTIES FITTED TO 20000.K

 NOTE. WEIGHT FRACTION OF FUEL IN TOTAL FUELS AND OF OXIDANT IN TOTAL OXIDANTS









               THERMODYNAMIC EQUILIBRIUM PROPERTIES AT ASSIGNED

                           TEMPERATURE AND PRESSURE

 CASE =                

             REACTANT                    WT FRACTION      ENERGY      TEMP
                                          (SEE NOTE)     KJ/KG-MOL      K  
             H2                           1.0000000         0.000      0.000

 O/F=    0.00000  %FUEL=100.000000  R,EQ.RATIO= 0.000000  PHI,EQ.RATIO= 0.000000

 THERMODYNAMIC PROPERTIES

 P, BAR           0.02000
 T, K              420.00
 RHO, KG/CU M    1.1545-3
 H, KJ/KG         1757.93
 U, KJ/KG          25.648
 G, KJ/KG        -34321.2
 S, KJ/(KG)(K)    85.9027

 M, (1/n)           2.016
 (dLV/dLP)t      -1.00000
 (dLV/dLT)p        1.0000
 Cp, KJ/(KG)(K)   14.4900
 GAMMAs            1.3979
 SON VEL,M/SEC     1556.1

 TRANSPORT PROPERTIES (GASES ONLY)
   CONDUCTIVITY IN UNITS OF MILLIWATTS/(CM)(K)

 VISC,MILLIPOISE  0.11262

  WITH EQUILIBRIUM REACTIONS

 Cp, KJ/(KG)(K)   14.4900
 CONDUCTIVITY      2.3742
 PRANDTL NUMBER    0.6873

  WITH FROZEN REACTIONS

 Cp, KJ/(KG)(K)   14.4900
 CONDUCTIVITY      2.3742
 PRANDTL NUMBER    0.6873

 MOLE FRACTIONS

 *H2              1.00000

  * THERMODYNAMIC PROPERTIES FITTED TO 20000.K

 NOTE. WEIGHT FRACTION OF FUEL IN TOTAL FUELS AND OF OXIDANT IN TOTAL OXIDANTS



  
