
 *******************************************************************************

         NASA-GLENN CHEMICAL EQUILIBRIUM PROGRAM CEA2, MAY 21, 2004
                   BY  BONNIE MCBRIDE AND SANFORD GORDON
      REFS: NASA RP-1311, PART I, 1994 AND NASA RP-1311, PART II, 1996

 *******************************************************************************



  prob tp ions
  p,bar= 0.0225,0.025,0.028,0.031,0.035,0.039,0.044,0.049,0.054,0.06,0.067,0.074,
 0.0825,0.091,0.1
  t,k= 1550,1560,1570,1580,1590,1600,1610,1620,1630,1640,1650,1660,1670,1680,1690
  
  
  reac
  fuel H2                wt%=100.0000
  oxid H2                wt%=100.0000
  
  output short
  
  output massf
  
  output siunits
  
  output transport
  
 end





               THERMODYNAMIC EQUILIBRIUM PROPERTIES AT ASSIGNED

                           TEMPERATURE AND PRESSURE

 CASE =                

             REACTANT                    WT FRACTION      ENERGY      TEMP
                                          (SEE NOTE)     KJ/KG-MOL      K  
 FUEL        H2                           1.0000000         0.000      0.000
 OXIDANT     H2                           1.0000000         0.000      0.000

 O/F=    1.00000  %FUEL= 50.000000  R,EQ.RATIO= 0.000000  PHI,EQ.RATIO=-1.000000

 THERMODYNAMIC PROPERTIES

 P, BAR           0.02250  0.02250  0.02250  0.02250  0.02250  0.02250  0.02250  0.02250
 T, K             1550.00  1560.00  1570.00  1580.00  1590.00  1600.00  1610.00  1620.00
 RHO, KG/CU M    3.5191-4 3.4965-4 3.4742-4 3.4522-4 3.4304-4 3.4089-4 3.3876-4 3.3667-4
 H, KJ/KG         18828.2  18992.4  19157.1  19322.3  19488.1  19654.5  19821.4  19989.1
 U, KJ/KG         12434.5  12557.4  12680.7  12804.6  12929.0  13054.0  13179.6  13305.9
 G, KJ/KG       -143783.7-144832.9-145883.6-146935.3-147988.1-149041.9-150096.8-151152.7
 S, KJ/(KG)(K)   104.9109 105.0162 105.1214 105.2263 105.3309 105.4352 105.5393 105.6431

 M, (1/n)           2.016    2.016    2.016    2.016    2.016    2.016    2.015    2.015
 (dLV/dLP)t      -1.00005 -1.00006 -1.00007 -1.00007 -1.00008 -1.00009 -1.00010 -1.00011
 (dLV/dLT)p        1.0018   1.0020   1.0023   1.0025   1.0028   1.0031   1.0034   1.0037
 Cp, KJ/(KG)(K)   16.3968  16.4457  16.4970  16.5508  16.6075  16.6671  16.7299  16.7960
 GAMMAs            1.3377   1.3365   1.3353   1.3341   1.3328   1.3315   1.3301   1.3286
 SON VEL,M/SEC     2924.5   2932.7   2940.7   2948.7   2956.7   2964.5   2972.2   2979.9

 TRANSPORT PROPERTIES (GASES ONLY)
   CONDUCTIVITY IN UNITS OF MILLIWATTS/(CM)(K)

 VISC,MILLIPOISE  0.27909  0.28036  0.28163  0.28290  0.28417  0.28543  0.28670  0.28797

  WITH EQUILIBRIUM REACTIONS

 Cp, KJ/(KG)(K)   16.3968  16.4457  16.4970  16.5508  16.6075  16.6671  16.7299  16.7960
 CONDUCTIVITY      6.6145   6.6726   6.7331   6.7959   6.8611   6.9290   6.9996   7.0733
 PRANDTL NUMBER    0.6918   0.6910   0.6900   0.6890   0.6878   0.6866   0.6852   0.6838

  WITH FROZEN REACTIONS

 Cp, KJ/(KG)(K)   16.1324  16.1536  16.1747  16.1958  16.2168  16.2378  16.2587  16.2795
 CONDUCTIVITY      6.4195   6.4561   6.4930   6.5300   6.5670   6.6041   6.6413   6.6785
 PRANDTL NUMBER    0.7014   0.7015   0.7016   0.7017   0.7017   0.7018   0.7019   0.7020

 MASS FRACTIONS

 *H               0.00011  0.00012  0.00013  0.00015  0.00016  0.00018  0.00020  0.00022
 *H2              0.99989  0.99988  0.99987  0.99985  0.99984  0.99982  0.99980  0.99978

  * THERMODYNAMIC PROPERTIES FITTED TO 20000.K

 NOTE. WEIGHT FRACTION OF FUEL IN TOTAL FUELS AND OF OXIDANT IN TOTAL OXIDANTS









               THERMODYNAMIC EQUILIBRIUM PROPERTIES AT ASSIGNED

                           TEMPERATURE AND PRESSURE

 CASE =                

             REACTANT                    WT FRACTION      ENERGY      TEMP
                                          (SEE NOTE)     KJ/KG-MOL      K  
 FUEL        H2                           1.0000000         0.000      0.000
 OXIDANT     H2                           1.0000000         0.000      0.000

 O/F=    1.00000  %FUEL= 50.000000  R,EQ.RATIO= 0.000000  PHI,EQ.RATIO=-1.000000

 THERMODYNAMIC PROPERTIES

 P, BAR           0.02250  0.02250  0.02250  0.02250  0.02250  0.02250  0.02250  0.02500
 T, K             1630.00  1640.00  1650.00  1660.00  1670.00  1680.00  1690.00  1550.00
 RHO, KG/CU M    3.3459-4 3.3254-4 3.3052-4 3.2852-4 3.2654-4 3.2458-4 3.2265-4 3.9101-4
 H, KJ/KG         20157.4  20326.4  20496.2  20666.8  20838.2  21010.5  21183.8  18826.9
 U, KJ/KG         13432.8  13560.3  13688.7  13817.8  13947.7  14078.5  14210.2  12433.3
 G, KJ/KG       -152209.6-153267.6-154326.6-155386.7-156447.8-157509.9-158573.0-143109.7
 S, KJ/(KG)(K)   105.7466 105.8500 105.9532 106.0563 106.1592 106.2621 106.3650 104.4752

 M, (1/n)           2.015    2.015    2.015    2.015    2.015    2.015    2.015    2.016
 (dLV/dLP)t      -1.00012 -1.00014 -1.00015 -1.00017 -1.00018 -1.00020 -1.00022 -1.00005
 (dLV/dLT)p        1.0041   1.0045   1.0050   1.0055   1.0060   1.0066   1.0072   1.0017
 Cp, KJ/(KG)(K)   16.8659  16.9395  17.0174  17.0996  17.1864  17.2783  17.3754  16.3832
 GAMMAs            1.3271   1.3256   1.3240   1.3223   1.3206   1.3188   1.3170   1.3380
 SON VEL,M/SEC     2987.4   2994.8   3002.2   3009.4   3016.6   3023.6   3030.5   2924.8

 TRANSPORT PROPERTIES (GASES ONLY)
   CONDUCTIVITY IN UNITS OF MILLIWATTS/(CM)(K)

 VISC,MILLIPOISE  0.28923  0.29050  0.29176  0.29303  0.29429  0.29556  0.29682  0.27909

  WITH EQUILIBRIUM REACTIONS

 Cp, KJ/(KG)(K)   16.8659  16.9395  17.0174  17.0996  17.1864  17.2783  17.3754  16.3832
 CONDUCTIVITY      7.1503   7.2307   7.3148   7.4029   7.4952   7.5921   7.6939   6.6040
 PRANDTL NUMBER    0.6822   0.6806   0.6788   0.6768   0.6748   0.6726   0.6703   0.6924

  WITH FROZEN REACTIONS

 Cp, KJ/(KG)(K)   16.3002  16.3209  16.3415  16.3620  16.3825  16.4029  16.4232  16.1323
 CONDUCTIVITY      6.7157   6.7530   6.7903   6.8277   6.8652   6.9027   6.9403   6.4191
 PRANDTL NUMBER    0.7020   0.7021   0.7022   0.7022   0.7023   0.7023   0.7024   0.7014

 MASS FRACTIONS

 *H               0.00025  0.00027  0.00030  0.00033  0.00037  0.00041  0.00045  0.00010
 *H2              0.99975  0.99973  0.99970  0.99967  0.99963  0.99959  0.99955  0.99990

  * THERMODYNAMIC PROPERTIES FITTED TO 20000.K

 NOTE. WEIGHT FRACTION OF FUEL IN TOTAL FUELS AND OF OXIDANT IN TOTAL OXIDANTS









               THERMODYNAMIC EQUILIBRIUM PROPERTIES AT ASSIGNED

                           TEMPERATURE AND PRESSURE

 CASE =                

             REACTANT                    WT FRACTION      ENERGY      TEMP
                                          (SEE NOTE)     KJ/KG-MOL      K  
 FUEL        H2                           1.0000000         0.000      0.000
 OXIDANT     H2                           1.0000000         0.000      0.000

 O/F=    1.00000  %FUEL= 50.000000  R,EQ.RATIO= 0.000000  PHI,EQ.RATIO=-1.000000

 THERMODYNAMIC PROPERTIES

 P, BAR           0.02500  0.02500  0.02500  0.02500  0.02500  0.02500  0.02500  0.02500
 T, K             1560.00  1570.00  1580.00  1590.00  1600.00  1610.00  1620.00  1630.00
 RHO, KG/CU M    3.8850-4 3.8602-4 3.8358-4 3.8116-4 3.7877-4 3.7641-4 3.7408-4 3.7177-4
 H, KJ/KG         18991.0  19155.6  19320.6  19486.2  19652.4  19819.1  19986.5  20154.5
 U, KJ/KG         12556.1  12679.3  12803.0  12927.2  13052.0  13177.4  13303.4  13430.0
 G, KJ/KG       -144154.9-145201.2-146248.6-147297.0-148346.5-149397.0-150448.6-151501.1
 S, KJ/(KG)(K)   104.5807 104.6858 104.7906 104.8951 104.9993 105.1032 105.2068 105.3102

 M, (1/n)           2.016    2.016    2.016    2.016    2.016    2.015    2.015    2.015
 (dLV/dLP)t      -1.00006 -1.00006 -1.00007 -1.00008 -1.00009 -1.00010 -1.00011 -1.00012
 (dLV/dLT)p        1.0019   1.0021   1.0024   1.0026   1.0029   1.0032   1.0035   1.0039
 Cp, KJ/(KG)(K)   16.4307  16.4804  16.5326  16.5874  16.6450  16.7056  16.7695  16.8368
 GAMMAs            1.3368   1.3357   1.3345   1.3332   1.3319   1.3306   1.3292   1.3277
 SON VEL,M/SEC     2933.0   2941.1   2949.2   2957.1   2965.0   2972.7   2980.4   2988.0

 TRANSPORT PROPERTIES (GASES ONLY)
   CONDUCTIVITY IN UNITS OF MILLIWATTS/(CM)(K)

 VISC,MILLIPOISE  0.28036  0.28163  0.28290  0.28416  0.28543  0.28670  0.28796  0.28923

  WITH EQUILIBRIUM REACTIONS

 Cp, KJ/(KG)(K)   16.4307  16.4804  16.5326  16.5874  16.6450  16.7056  16.7695  16.8368
 CONDUCTIVITY      6.6613   6.7207   6.7821   6.8459   6.9122   6.9811   7.0529   7.1278
 PRANDTL NUMBER    0.6915   0.6906   0.6896   0.6885   0.6873   0.6861   0.6847   0.6832

  WITH FROZEN REACTIONS

 Cp, KJ/(KG)(K)   16.1536  16.1747  16.1958  16.2168  16.2378  16.2586  16.2794  16.3002
 CONDUCTIVITY      6.4559   6.4929   6.5299   6.5669   6.6040   6.6411   6.6783   6.7155
 PRANDTL NUMBER    0.7015   0.7016   0.7017   0.7017   0.7018   0.7019   0.7020   0.7020

 MASS FRACTIONS

 *H               0.00011  0.00012  0.00014  0.00015  0.00017  0.00019  0.00021  0.00024
 *H2              0.99989  0.99988  0.99986  0.99985  0.99983  0.99981  0.99979  0.99976

  * THERMODYNAMIC PROPERTIES FITTED TO 20000.K

 NOTE. WEIGHT FRACTION OF FUEL IN TOTAL FUELS AND OF OXIDANT IN TOTAL OXIDANTS









               THERMODYNAMIC EQUILIBRIUM PROPERTIES AT ASSIGNED

                           TEMPERATURE AND PRESSURE

 CASE =                

             REACTANT                    WT FRACTION      ENERGY      TEMP
                                          (SEE NOTE)     KJ/KG-MOL      K  
 FUEL        H2                           1.0000000         0.000      0.000
 OXIDANT     H2                           1.0000000         0.000      0.000

 O/F=    1.00000  %FUEL= 50.000000  R,EQ.RATIO= 0.000000  PHI,EQ.RATIO=-1.000000

 THERMODYNAMIC PROPERTIES

 P, BAR           0.02500  0.02500  0.02500  0.02500  0.02500  0.02500  0.02800  0.02800
 T, K             1640.00  1650.00  1660.00  1670.00  1680.00  1690.00  1550.00  1560.00
 RHO, KG/CU M    3.6950-4 3.6725-4 3.6502-4 3.6283-4 3.6065-4 3.5851-4 4.3794-4 4.3513-4
 H, KJ/KG         20323.2  20492.7  20662.9  20833.9  21005.8  21178.6  18825.7  18989.6
 U, KJ/KG         13557.3  13685.3  13814.1  13943.6  14074.0  14205.2  12432.1  12554.7
 G, KJ/KG       -152554.8-153609.4-154665.1-155721.8-156779.5-157838.3-142385.1-143425.6
 S, KJ/(KG)(K)   105.4134 105.5164 105.6193 105.7220 105.8246 105.9272 104.0070 104.1123

 M, (1/n)           2.015    2.015    2.015    2.015    2.015    2.015    2.016    2.016
 (dLV/dLP)t      -1.00013 -1.00014 -1.00016 -1.00018 -1.00019 -1.00021 -1.00005 -1.00005
 (dLV/dLT)p        1.0043   1.0047   1.0052   1.0057   1.0062   1.0068   1.0016   1.0018
 Cp, KJ/(KG)(K)   16.9077  16.9826  17.0616  17.1451  17.2333  17.3264  16.3694  16.4154
 GAMMAs            1.3262   1.3247   1.3231   1.3214   1.3197   1.3179   1.3383   1.3372
 SON VEL,M/SEC     2995.5   3002.9   3010.2   3017.4   3024.5   3031.5   2925.1   2933.4

 TRANSPORT PROPERTIES (GASES ONLY)
   CONDUCTIVITY IN UNITS OF MILLIWATTS/(CM)(K)

 VISC,MILLIPOISE  0.29049  0.29176  0.29302  0.29429  0.29555  0.29681  0.27909  0.28036

  WITH EQUILIBRIUM REACTIONS

 Cp, KJ/(KG)(K)   16.9077  16.9826  17.0616  17.1451  17.2333  17.3264  16.3694  16.4154
 CONDUCTIVITY      7.2060   7.2877   7.3732   7.4627   7.5565   7.6549   6.5938   6.6499
 PRANDTL NUMBER    0.6816   0.6799   0.6781   0.6761   0.6740   0.6718   0.6928   0.6921

  WITH FROZEN REACTIONS

 Cp, KJ/(KG)(K)   16.3209  16.3415  16.3620  16.3824  16.4028  16.4231  16.1323  16.1535
 CONDUCTIVITY      6.7528   6.7901   6.8275   6.8649   6.9024   6.9400   6.4190   6.4559
 PRANDTL NUMBER    0.7021   0.7022   0.7022   0.7023   0.7023   0.7024   0.7014   0.7015

 MASS FRACTIONS

 *H               0.00026  0.00029  0.00032  0.00035  0.00039  0.00042  0.00009  0.00011
 *H2              0.99974  0.99971  0.99968  0.99965  0.99961  0.99958  0.99991  0.99989

  * THERMODYNAMIC PROPERTIES FITTED TO 20000.K

 NOTE. WEIGHT FRACTION OF FUEL IN TOTAL FUELS AND OF OXIDANT IN TOTAL OXIDANTS









               THERMODYNAMIC EQUILIBRIUM PROPERTIES AT ASSIGNED

                           TEMPERATURE AND PRESSURE

 CASE =                

             REACTANT                    WT FRACTION      ENERGY      TEMP
                                          (SEE NOTE)     KJ/KG-MOL      K  
 FUEL        H2                           1.0000000         0.000      0.000
 OXIDANT     H2                           1.0000000         0.000      0.000

 O/F=    1.00000  %FUEL= 50.000000  R,EQ.RATIO= 0.000000  PHI,EQ.RATIO=-1.000000

 THERMODYNAMIC PROPERTIES

 P, BAR           0.02800  0.02800  0.02800  0.02800  0.02800  0.02800  0.02800  0.02800
 T, K             1570.00  1580.00  1590.00  1600.00  1610.00  1620.00  1630.00  1640.00
 RHO, KG/CU M    4.3235-4 4.2961-4 4.2690-4 4.2422-4 4.2158-4 4.1897-4 4.1639-4 4.1384-4
 H, KJ/KG         19154.0  19318.9  19484.3  19650.3  19816.8  19983.9  20151.6  20320.0
 U, KJ/KG         12677.8  12801.3  12925.4  13050.0  13175.1  13300.8  13427.2  13554.2
 G, KJ/KG       -144467.3-145510.0-146553.7-147598.5-148644.3-149691.2-150739.1-151788.0
 S, KJ/(KG)(K)   104.2174 104.3221 104.4264 104.5305 104.6342 104.7377 104.8409 104.9439

 M, (1/n)           2.016    2.016    2.016    2.016    2.016    2.015    2.015    2.015
 (dLV/dLP)t      -1.00006 -1.00007 -1.00007 -1.00008 -1.00009 -1.00010 -1.00011 -1.00012
 (dLV/dLT)p        1.0020   1.0023   1.0025   1.0028   1.0030   1.0034   1.0037   1.0041
 Cp, KJ/(KG)(K)   16.4635  16.5140  16.5669  16.6225  16.6810  16.7424  16.8072  16.8753
 GAMMAs            1.3360   1.3348   1.3336   1.3324   1.3311   1.3297   1.3283   1.3269
 SON VEL,M/SEC     2941.5   2949.6   2957.6   2965.5   2973.3   2981.0   2988.7   2996.2

 TRANSPORT PROPERTIES (GASES ONLY)
   CONDUCTIVITY IN UNITS OF MILLIWATTS/(CM)(K)

 VISC,MILLIPOISE  0.28163  0.28289  0.28416  0.28543  0.28669  0.28796  0.28922  0.29049

  WITH EQUILIBRIUM REACTIONS

 Cp, KJ/(KG)(K)   16.4635  16.5140  16.5669  16.6225  16.6810  16.7424  16.8072  16.8753
 CONDUCTIVITY      6.7080   6.7681   6.8304   6.8951   6.9623   7.0322   7.1049   7.1808
 PRANDTL NUMBER    0.6912   0.6903   0.6892   0.6881   0.6869   0.6856   0.6842   0.6827

  WITH FROZEN REACTIONS

 Cp, KJ/(KG)(K)   16.1747  16.1958  16.2168  16.2377  16.2586  16.2794  16.3001  16.3208
 CONDUCTIVITY      6.4928   6.5298   6.5668   6.6039   6.6410   6.6782   6.7154   6.7526
 PRANDTL NUMBER    0.7016   0.7017   0.7017   0.7018   0.7019   0.7020   0.7020   0.7021

 MASS FRACTIONS

 *H               0.00012  0.00013  0.00015  0.00016  0.00018  0.00020  0.00022  0.00025
 *H2              0.99988  0.99987  0.99985  0.99984  0.99982  0.99980  0.99978  0.99975

  * THERMODYNAMIC PROPERTIES FITTED TO 20000.K

 NOTE. WEIGHT FRACTION OF FUEL IN TOTAL FUELS AND OF OXIDANT IN TOTAL OXIDANTS









               THERMODYNAMIC EQUILIBRIUM PROPERTIES AT ASSIGNED

                           TEMPERATURE AND PRESSURE

 CASE =                

             REACTANT                    WT FRACTION      ENERGY      TEMP
                                          (SEE NOTE)     KJ/KG-MOL      K  
 FUEL        H2                           1.0000000         0.000      0.000
 OXIDANT     H2                           1.0000000         0.000      0.000

 O/F=    1.00000  %FUEL= 50.000000  R,EQ.RATIO= 0.000000  PHI,EQ.RATIO=-1.000000

 THERMODYNAMIC PROPERTIES

 P, BAR           0.02800  0.02800  0.02800  0.02800  0.02800  0.03100  0.03100  0.03100
 T, K             1650.00  1660.00  1670.00  1680.00  1690.00  1550.00  1560.00  1570.00
 RHO, KG/CU M    4.1132-4 4.0883-4 4.0637-4 4.0394-4 4.0154-4 4.8486-4 4.8175-4 4.7868-4
 H, KJ/KG         20489.1  20659.0  20829.6  21001.1  21173.4  18824.7  18988.5  19152.7
 U, KJ/KG         13681.9  13810.3  13939.4  14069.4  14200.2  12431.1  12553.6  12676.5
 G, KJ/KG       -152837.9-153888.9-154940.9-155994.0-157048.0-141734.3-142770.7-143808.1
 S, KJ/(KG)(K)   105.0467 105.1493 105.2518 105.3542 105.4564 103.5864 103.6917 103.7967

 M, (1/n)           2.015    2.015    2.015    2.015    2.015    2.016    2.016    2.016
 (dLV/dLP)t      -1.00014 -1.00015 -1.00017 -1.00018 -1.00020 -1.00004 -1.00005 -1.00006
 (dLV/dLT)p        1.0045   1.0049   1.0054   1.0059   1.0064   1.0016   1.0017   1.0019
 Cp, KJ/(KG)(K)   16.9472  17.0230  17.1030  17.1874  17.2766  16.3576  16.4024  16.4492
 GAMMAs            1.3254   1.3238   1.3222   1.3205   1.3188   1.3385   1.3374   1.3363
 SON VEL,M/SEC     3003.7   3011.0   3018.3   3025.4   3032.5   2925.4   2933.7   2941.8

 TRANSPORT PROPERTIES (GASES ONLY)
   CONDUCTIVITY IN UNITS OF MILLIWATTS/(CM)(K)

 VISC,MILLIPOISE  0.29175  0.29302  0.29428  0.29554  0.29681  0.27909  0.28036  0.28162

  WITH EQUILIBRIUM REACTIONS

 Cp, KJ/(KG)(K)   16.9472  17.0230  17.1030  17.1874  17.2766  16.3576  16.4024  16.4492
 CONDUCTIVITY      7.2601   7.3429   7.4295   7.5202   7.6152   6.5850   6.6402   6.6973
 PRANDTL NUMBER    0.6810   0.6793   0.6774   0.6755   0.6734   0.6933   0.6925   0.6917

  WITH FROZEN REACTIONS

 Cp, KJ/(KG)(K)   16.3414  16.3619  16.3823  16.4027  16.4230  16.1323  16.1535  16.1746
 CONDUCTIVITY      6.7899   6.8273   6.8647   6.9021   6.9397   6.4189   6.4558   6.4928
 PRANDTL NUMBER    0.7022   0.7022   0.7023   0.7023   0.7024   0.7014   0.7015   0.7016

 MASS FRACTIONS

 *H               0.00027  0.00030  0.00033  0.00036  0.00040  0.00009  0.00010  0.00011
 *H2              0.99973  0.99970  0.99967  0.99964  0.99960  0.99991  0.99990  0.99989

  * THERMODYNAMIC PROPERTIES FITTED TO 20000.K

 NOTE. WEIGHT FRACTION OF FUEL IN TOTAL FUELS AND OF OXIDANT IN TOTAL OXIDANTS









               THERMODYNAMIC EQUILIBRIUM PROPERTIES AT ASSIGNED

                           TEMPERATURE AND PRESSURE

 CASE =                

             REACTANT                    WT FRACTION      ENERGY      TEMP
                                          (SEE NOTE)     KJ/KG-MOL      K  
 FUEL        H2                           1.0000000         0.000      0.000
 OXIDANT     H2                           1.0000000         0.000      0.000

 O/F=    1.00000  %FUEL= 50.000000  R,EQ.RATIO= 0.000000  PHI,EQ.RATIO=-1.000000

 THERMODYNAMIC PROPERTIES

 P, BAR           0.03100  0.03100  0.03100  0.03100  0.03100  0.03100  0.03100  0.03100
 T, K             1580.00  1590.00  1600.00  1610.00  1620.00  1630.00  1640.00  1650.00
 RHO, KG/CU M    4.7564-4 4.7264-4 4.6968-4 4.6676-4 4.6387-4 4.6101-4 4.5819-4 4.5540-4
 H, KJ/KG         19317.5  19482.7  19648.5  19814.8  19981.7  20149.2  20317.3  20486.1
 U, KJ/KG         12799.9  12923.8  13048.2  13173.2  13298.7  13424.8  13551.5  13678.9
 G, KJ/KG       -144846.6-145886.1-146926.7-147968.3-149011.0-150054.6-151099.3-152145.1
 S, KJ/(KG)(K)   103.9013 104.0055 104.1095 104.2131 104.3164 104.4195 104.5223 104.6250

 M, (1/n)           2.016    2.016    2.016    2.016    2.015    2.015    2.015    2.015
 (dLV/dLP)t      -1.00006 -1.00007 -1.00008 -1.00009 -1.00010 -1.00011 -1.00012 -1.00013
 (dLV/dLT)p        1.0021   1.0024   1.0026   1.0029   1.0032   1.0035   1.0039   1.0042
 Cp, KJ/(KG)(K)   16.4982  16.5495  16.6034  16.6600  16.7194  16.7820  16.8478  16.9171
 GAMMAs            1.3352   1.3340   1.3328   1.3315   1.3302   1.3288   1.3274   1.3259
 SON VEL,M/SEC     2949.9   2958.0   2965.9   2973.8   2981.5   2989.2   2996.8   3004.3

 TRANSPORT PROPERTIES (GASES ONLY)
   CONDUCTIVITY IN UNITS OF MILLIWATTS/(CM)(K)

 VISC,MILLIPOISE  0.28289  0.28416  0.28543  0.28669  0.28796  0.28922  0.29048  0.29175

  WITH EQUILIBRIUM REACTIONS

 Cp, KJ/(KG)(K)   16.4982  16.5495  16.6034  16.6600  16.7194  16.7820  16.8478  16.9171
 CONDUCTIVITY      6.7562   6.8173   6.8806   6.9462   7.0145   7.0855   7.1595   7.2366
 PRANDTL NUMBER    0.6908   0.6898   0.6888   0.6876   0.6864   0.6850   0.6836   0.6820

  WITH FROZEN REACTIONS

 Cp, KJ/(KG)(K)   16.1957  16.2167  16.2377  16.2586  16.2794  16.3001  16.3207  16.3413
 CONDUCTIVITY      6.5297   6.5668   6.6038   6.6409   6.6781   6.7152   6.7525   6.7898
 PRANDTL NUMBER    0.7017   0.7017   0.7018   0.7019   0.7020   0.7020   0.7021   0.7022

 MASS FRACTIONS

 *H               0.00012  0.00014  0.00015  0.00017  0.00019  0.00021  0.00023  0.00026
 *H2              0.99988  0.99986  0.99985  0.99983  0.99981  0.99979  0.99977  0.99974

  * THERMODYNAMIC PROPERTIES FITTED TO 20000.K

 NOTE. WEIGHT FRACTION OF FUEL IN TOTAL FUELS AND OF OXIDANT IN TOTAL OXIDANTS









               THERMODYNAMIC EQUILIBRIUM PROPERTIES AT ASSIGNED

                           TEMPERATURE AND PRESSURE

 CASE =                

             REACTANT                    WT FRACTION      ENERGY      TEMP
                                          (SEE NOTE)     KJ/KG-MOL      K  
 FUEL        H2                           1.0000000         0.000      0.000
 OXIDANT     H2                           1.0000000         0.000      0.000

 O/F=    1.00000  %FUEL= 50.000000  R,EQ.RATIO= 0.000000  PHI,EQ.RATIO=-1.000000

 THERMODYNAMIC PROPERTIES

 P, BAR           0.03100  0.03100  0.03100  0.03100  0.03500  0.03500  0.03500  0.03500
 T, K             1660.00  1670.00  1680.00  1690.00  1550.00  1560.00  1570.00  1580.00
 RHO, KG/CU M    4.5264-4 4.4992-4 4.4723-4 4.4457-4 5.4743-4 5.4391-4 5.4044-4 5.3702-4
 H, KJ/KG         20655.7  20825.9  20997.0  21168.9  18823.5  18987.1  19151.2  19315.8
 U, KJ/KG         13807.0  13935.9  14065.4  14195.9  12430.0  12552.3  12675.1  12798.3
 G, KJ/KG       -153191.8-154239.6-155288.4-156338.3-140958.4-141989.7-143022.1-144055.6
 S, KJ/(KG)(K)   104.7274 104.8297 104.9318 105.0338 103.0851 103.1903 103.2951 103.3996

 M, (1/n)           2.015    2.015    2.015    2.015    2.016    2.016    2.016    2.016
 (dLV/dLP)t      -1.00014 -1.00016 -1.00017 -1.00019 -1.00004 -1.00005 -1.00005 -1.00006
 (dLV/dLT)p        1.0047   1.0051   1.0056   1.0061   1.0015   1.0016   1.0018   1.0020
 Cp, KJ/(KG)(K)   16.9902  17.0672  17.1484  17.2342  16.3443  16.3877  16.4330  16.4803
 GAMMAs            1.3244   1.3229   1.3212   1.3195   1.3388   1.3378   1.3367   1.3356
 SON VEL,M/SEC     3011.7   3019.0   3026.2   3033.4   2925.7   2934.0   2942.2   2950.3

 TRANSPORT PROPERTIES (GASES ONLY)
   CONDUCTIVITY IN UNITS OF MILLIWATTS/(CM)(K)

 VISC,MILLIPOISE  0.29301  0.29427  0.29554  0.29680  0.27908  0.28035  0.28162  0.28289

  WITH EQUILIBRIUM REACTIONS

 Cp, KJ/(KG)(K)   16.9902  17.0672  17.1484  17.2342  16.3443  16.3877  16.4330  16.4803
 CONDUCTIVITY      7.3171   7.4013   7.4893   7.5815   6.5752   6.6293   6.6852   6.7428
 PRANDTL NUMBER    0.6804   0.6786   0.6767   0.6747   0.6937   0.6930   0.6923   0.6914

  WITH FROZEN REACTIONS

 Cp, KJ/(KG)(K)   16.3618  16.3823  16.4026  16.4229  16.1323  16.1535  16.1746  16.1957
 CONDUCTIVITY      6.8271   6.8645   6.9019   6.9394   6.4189   6.4557   6.4927   6.5296
 PRANDTL NUMBER    0.7022   0.7023   0.7024   0.7024   0.7014   0.7015   0.7016   0.7017

 MASS FRACTIONS

 *H               0.00029  0.00031  0.00035  0.00038  0.00008  0.00009  0.00011  0.00012
 *H2              0.99971  0.99969  0.99965  0.99962  0.99992  0.99991  0.99989  0.99988

  * THERMODYNAMIC PROPERTIES FITTED TO 20000.K

 NOTE. WEIGHT FRACTION OF FUEL IN TOTAL FUELS AND OF OXIDANT IN TOTAL OXIDANTS









               THERMODYNAMIC EQUILIBRIUM PROPERTIES AT ASSIGNED

                           TEMPERATURE AND PRESSURE

 CASE =                

             REACTANT                    WT FRACTION      ENERGY      TEMP
                                          (SEE NOTE)     KJ/KG-MOL      K  
 FUEL        H2                           1.0000000         0.000      0.000
 OXIDANT     H2                           1.0000000         0.000      0.000

 O/F=    1.00000  %FUEL= 50.000000  R,EQ.RATIO= 0.000000  PHI,EQ.RATIO=-1.000000

 THERMODYNAMIC PROPERTIES

 P, BAR           0.03500  0.03500  0.03500  0.03500  0.03500  0.03500  0.03500  0.03500
 T, K             1590.00  1600.00  1610.00  1620.00  1630.00  1640.00  1650.00  1660.00
 RHO, KG/CU M    5.3363-4 5.3029-4 5.2699-4 5.2372-4 5.2050-4 5.1732-4 5.1417-4 5.1106-4
 H, KJ/KG         19480.9  19646.4  19812.5  19979.2  20146.4  20314.2  20482.7  20651.9
 U, KJ/KG         12922.0  13046.2  13171.0  13296.3  13422.1  13548.6  13675.6  13803.4
 G, KJ/KG       -145090.1-146125.7-147162.3-148199.9-149238.6-150278.2-151319.0-152360.7
 S, KJ/(KG)(K)   103.5038 103.6076 103.7110 103.8142 103.9171 104.0198 104.1222 104.2245

 M, (1/n)           2.016    2.016    2.016    2.016    2.015    2.015    2.015    2.015
 (dLV/dLP)t      -1.00007 -1.00007 -1.00008 -1.00009 -1.00010 -1.00011 -1.00012 -1.00013
 (dLV/dLT)p        1.0022   1.0025   1.0027   1.0030   1.0033   1.0036   1.0040   1.0044
 Cp, KJ/(KG)(K)   16.5299  16.5818  16.6363  16.6935  16.7535  16.8167  16.8831  16.9531
 GAMMAs            1.3344   1.3332   1.3320   1.3307   1.3294   1.3280   1.3266   1.3251
 SON VEL,M/SEC     2958.4   2966.4   2974.3   2982.1   2989.8   2997.5   3005.0   3012.5

 TRANSPORT PROPERTIES (GASES ONLY)
   CONDUCTIVITY IN UNITS OF MILLIWATTS/(CM)(K)

 VISC,MILLIPOISE  0.28416  0.28542  0.28669  0.28795  0.28922  0.29048  0.29174  0.29301

  WITH EQUILIBRIUM REACTIONS

 Cp, KJ/(KG)(K)   16.5299  16.5818  16.6363  16.6935  16.7535  16.8167  16.8831  16.9531
 CONDUCTIVITY      6.8024   6.8642   6.9281   6.9945   7.0635   7.1353   7.2101   7.2881
 PRANDTL NUMBER    0.6905   0.6895   0.6884   0.6872   0.6860   0.6846   0.6831   0.6816

  WITH FROZEN REACTIONS

 Cp, KJ/(KG)(K)   16.2167  16.2376  16.2585  16.2793  16.3000  16.3207  16.3413  16.3618
 CONDUCTIVITY      6.5667   6.6037   6.6408   6.6779   6.7151   6.7523   6.7896   6.8269
 PRANDTL NUMBER    0.7017   0.7018   0.7019   0.7020   0.7020   0.7021   0.7022   0.7022

 MASS FRACTIONS

 *H               0.00013  0.00015  0.00016  0.00018  0.00020  0.00022  0.00024  0.00027
 *H2              0.99987  0.99985  0.99984  0.99982  0.99980  0.99978  0.99976  0.99973

  * THERMODYNAMIC PROPERTIES FITTED TO 20000.K

 NOTE. WEIGHT FRACTION OF FUEL IN TOTAL FUELS AND OF OXIDANT IN TOTAL OXIDANTS









               THERMODYNAMIC EQUILIBRIUM PROPERTIES AT ASSIGNED

                           TEMPERATURE AND PRESSURE

 CASE =                

             REACTANT                    WT FRACTION      ENERGY      TEMP
                                          (SEE NOTE)     KJ/KG-MOL      K  
 FUEL        H2                           1.0000000         0.000      0.000
 OXIDANT     H2                           1.0000000         0.000      0.000

 O/F=    1.00000  %FUEL= 50.000000  R,EQ.RATIO= 0.000000  PHI,EQ.RATIO=-1.000000

 THERMODYNAMIC PROPERTIES

 P, BAR           0.03500  0.03500  0.03500  0.03900  0.03900  0.03900  0.03900  0.03900
 T, K             1670.00  1680.00  1690.00  1550.00  1560.00  1570.00  1580.00  1590.00
 RHO, KG/CU M    5.0799-4 5.0495-4 5.0194-4 6.0999-4 6.0608-4 6.0221-4 5.9839-4 5.9462-4
 H, KJ/KG         20821.8  20992.5  21163.9  18822.5  18986.0  19150.0  19314.4  19479.3
 U, KJ/KG         13931.8  14061.0  14191.0  12429.0  12551.2  12673.9  12797.0  12920.5
 G, KJ/KG       -153403.4-154447.2-155492.0-140266.5-141293.4-142321.3-143350.3-144380.4
 S, KJ/(KG)(K)   104.3265 104.4284 104.5301 102.6381 102.7432 102.8480 102.9524 103.0564

 M, (1/n)           2.015    2.015    2.015    2.016    2.016    2.016    2.016    2.016
 (dLV/dLP)t      -1.00015 -1.00016 -1.00018 -1.00004 -1.00004 -1.00005 -1.00006 -1.00006
 (dLV/dLT)p        1.0048   1.0053   1.0058   1.0014   1.0015   1.0017   1.0019   1.0021
 Cp, KJ/(KG)(K)   17.0268  17.1044  17.1863  16.3331  16.3753  16.4194  16.4653  16.5134
 GAMMAs            1.3236   1.3221   1.3204   1.3391   1.3380   1.3370   1.3359   1.3347
 SON VEL,M/SEC     3019.9   3027.2   3034.3   2926.0   2934.3   2942.5   2950.7   2958.8

 TRANSPORT PROPERTIES (GASES ONLY)
   CONDUCTIVITY IN UNITS OF MILLIWATTS/(CM)(K)

 VISC,MILLIPOISE  0.29427  0.29553  0.29679  0.27908  0.28035  0.28162  0.28289  0.28416

  WITH EQUILIBRIUM REACTIONS

 Cp, KJ/(KG)(K)   17.0268  17.1044  17.1863  16.3331  16.3753  16.4194  16.4653  16.5134
 CONDUCTIVITY      7.3695   7.4545   7.5434   6.5669   6.6201   6.6750   6.7315   6.7899
 PRANDTL NUMBER    0.6799   0.6781   0.6762   0.6941   0.6935   0.6927   0.6919   0.6911

  WITH FROZEN REACTIONS

 Cp, KJ/(KG)(K)   16.3822  16.4026  16.4228  16.1322  16.1535  16.1746  16.1957  16.2167
 CONDUCTIVITY      6.8642   6.9017   6.9391   6.4188   6.4557   6.4926   6.5296   6.5666
 PRANDTL NUMBER    0.7023   0.7024   0.7024   0.7014   0.7015   0.7016   0.7017   0.7017

 MASS FRACTIONS

 *H               0.00030  0.00033  0.00036  0.00008  0.00009  0.00010  0.00011  0.00012
 *H2              0.99970  0.99967  0.99964  0.99992  0.99991  0.99990  0.99989  0.99988

  * THERMODYNAMIC PROPERTIES FITTED TO 20000.K

 NOTE. WEIGHT FRACTION OF FUEL IN TOTAL FUELS AND OF OXIDANT IN TOTAL OXIDANTS









               THERMODYNAMIC EQUILIBRIUM PROPERTIES AT ASSIGNED

                           TEMPERATURE AND PRESSURE

 CASE =                

             REACTANT                    WT FRACTION      ENERGY      TEMP
                                          (SEE NOTE)     KJ/KG-MOL      K  
 FUEL        H2                           1.0000000         0.000      0.000
 OXIDANT     H2                           1.0000000         0.000      0.000

 O/F=    1.00000  %FUEL= 50.000000  R,EQ.RATIO= 0.000000  PHI,EQ.RATIO=-1.000000

 THERMODYNAMIC PROPERTIES

 P, BAR           0.03900  0.03900  0.03900  0.03900  0.03900  0.03900  0.03900  0.03900
 T, K             1600.00  1610.00  1620.00  1630.00  1640.00  1650.00  1660.00  1670.00
 RHO, KG/CU M    5.9090-4 5.8722-4 5.8358-4 5.7999-4 5.7645-4 5.7294-4 5.6947-4 5.6605-4
 H, KJ/KG         19644.7  19810.6  19977.0  20144.0  20311.6  20479.9  20648.7  20818.3
 U, KJ/KG         13044.6  13169.1  13294.2  13419.8  13546.0  13672.9  13800.3  13928.5
 G, KJ/KG       -145411.5-146443.6-147476.7-148510.9-149546.1-150582.3-151619.6-152657.9
 S, KJ/(KG)(K)   103.1601 103.2635 103.3665 103.4693 103.5718 103.6741 103.7761 103.8779

 M, (1/n)           2.016    2.016    2.016    2.016    2.015    2.015    2.015    2.015
 (dLV/dLP)t      -1.00007 -1.00008 -1.00008 -1.00009 -1.00010 -1.00012 -1.00013 -1.00014
 (dLV/dLT)p        1.0023   1.0026   1.0028   1.0031   1.0034   1.0038   1.0042   1.0046
 Cp, KJ/(KG)(K)   16.5637  16.6164  16.6716  16.7296  16.7905  16.8545  16.9219  16.9928
 GAMMAs            1.3336   1.3324   1.3311   1.3299   1.3285   1.3272   1.3257   1.3243
 SON VEL,M/SEC     2966.8   2974.7   2982.6   2990.4   2998.0   3005.7   3013.2   3020.6

 TRANSPORT PROPERTIES (GASES ONLY)
   CONDUCTIVITY IN UNITS OF MILLIWATTS/(CM)(K)

 VISC,MILLIPOISE  0.28542  0.28669  0.28795  0.28921  0.29048  0.29174  0.29300  0.29426

  WITH EQUILIBRIUM REACTIONS

 Cp, KJ/(KG)(K)   16.5637  16.6164  16.6716  16.7296  16.7905  16.8545  16.9219  16.9928
 CONDUCTIVITY      6.8503   6.9129   6.9777   7.0451   7.1150   7.1878   7.2636   7.3427
 PRANDTL NUMBER    0.6901   0.6891   0.6880   0.6868   0.6855   0.6841   0.6826   0.6810

  WITH FROZEN REACTIONS

 Cp, KJ/(KG)(K)   16.2376  16.2585  16.2793  16.3000  16.3206  16.3412  16.3617  16.3821
 CONDUCTIVITY      6.6036   6.6407   6.6778   6.7150   6.7522   6.7894   6.8267   6.8640
 PRANDTL NUMBER    0.7018   0.7019   0.7020   0.7020   0.7021   0.7022   0.7022   0.7023

 MASS FRACTIONS

 *H               0.00014  0.00015  0.00017  0.00019  0.00021  0.00023  0.00025  0.00028
 *H2              0.99986  0.99985  0.99983  0.99981  0.99979  0.99977  0.99975  0.99972

  * THERMODYNAMIC PROPERTIES FITTED TO 20000.K

 NOTE. WEIGHT FRACTION OF FUEL IN TOTAL FUELS AND OF OXIDANT IN TOTAL OXIDANTS









               THERMODYNAMIC EQUILIBRIUM PROPERTIES AT ASSIGNED

                           TEMPERATURE AND PRESSURE

 CASE =                

             REACTANT                    WT FRACTION      ENERGY      TEMP
                                          (SEE NOTE)     KJ/KG-MOL      K  
 FUEL        H2                           1.0000000         0.000      0.000
 OXIDANT     H2                           1.0000000         0.000      0.000

 O/F=    1.00000  %FUEL= 50.000000  R,EQ.RATIO= 0.000000  PHI,EQ.RATIO=-1.000000

 THERMODYNAMIC PROPERTIES

 P, BAR           0.03900  0.03900  0.04400  0.04400  0.04400  0.04400  0.04400  0.04400
 T, K             1680.00  1690.00  1550.00  1560.00  1570.00  1580.00  1590.00  1600.00
 RHO, KG/CU M    5.6266-4 5.5932-4 6.8820-4 6.8378-4 6.7942-4 6.7512-4 6.7086-4 6.6666-4
 H, KJ/KG         20988.6  21159.7  18821.5  18984.9  19148.7  19313.0  19477.7  19642.9
 U, KJ/KG         14057.3  14186.9  12428.0  12550.1  12672.6  12795.6  12919.0  13042.8
 G, KJ/KG       -153697.2-154737.5-139495.3-140517.2-141540.1-142564.1-143589.2-144615.3
 S, KJ/(KG)(K)   103.9796 104.0811 102.1398 102.2449 102.3496 102.4539 102.5578 102.6614

 M, (1/n)           2.015    2.015    2.016    2.016    2.016    2.016    2.016    2.016
 (dLV/dLP)t      -1.00015 -1.00017 -1.00004 -1.00004 -1.00005 -1.00005 -1.00006 -1.00006
 (dLV/dLT)p        1.0050   1.0055   1.0013   1.0015   1.0016   1.0018   1.0020   1.0022
 Cp, KJ/(KG)(K)   17.0674  17.1460  16.3213  16.3623  16.4050  16.4495  16.4960  16.5446
 GAMMAs            1.3227   1.3212   1.3393   1.3383   1.3373   1.3362   1.3351   1.3340
 SON VEL,M/SEC     3027.9   3035.2   2926.2   2934.6   2942.8   2951.0   2959.2   2967.2

 TRANSPORT PROPERTIES (GASES ONLY)
   CONDUCTIVITY IN UNITS OF MILLIWATTS/(CM)(K)

 VISC,MILLIPOISE  0.29553  0.29679  0.27908  0.28035  0.28162  0.28289  0.28415  0.28542

  WITH EQUILIBRIUM REACTIONS

 Cp, KJ/(KG)(K)   17.0674  17.1460  16.3213  16.3623  16.4050  16.4495  16.4960  16.5446
 CONDUCTIVITY      7.4252   7.5114   6.5582   6.6104   6.6642   6.7196   6.7768   6.8358
 PRANDTL NUMBER    0.6793   0.6775   0.6946   0.6939   0.6932   0.6925   0.6917   0.6908

  WITH FROZEN REACTIONS

 Cp, KJ/(KG)(K)   16.4025  16.4228  16.1322  16.1534  16.1746  16.1956  16.2166  16.2376
 CONDUCTIVITY      6.9014   6.9389   6.4187   6.4556   6.4925   6.5295   6.5665   6.6035
 PRANDTL NUMBER    0.7024   0.7024   0.7014   0.7015   0.7016   0.7017   0.7017   0.7018

 MASS FRACTIONS

 *H               0.00031  0.00034  0.00008  0.00008  0.00009  0.00010  0.00012  0.00013
 *H2              0.99969  0.99966  0.99992  0.99992  0.99991  0.99990  0.99988  0.99987

  * THERMODYNAMIC PROPERTIES FITTED TO 20000.K

 NOTE. WEIGHT FRACTION OF FUEL IN TOTAL FUELS AND OF OXIDANT IN TOTAL OXIDANTS









               THERMODYNAMIC EQUILIBRIUM PROPERTIES AT ASSIGNED

                           TEMPERATURE AND PRESSURE

 CASE =                

             REACTANT                    WT FRACTION      ENERGY      TEMP
                                          (SEE NOTE)     KJ/KG-MOL      K  
 FUEL        H2                           1.0000000         0.000      0.000
 OXIDANT     H2                           1.0000000         0.000      0.000

 O/F=    1.00000  %FUEL= 50.000000  R,EQ.RATIO= 0.000000  PHI,EQ.RATIO=-1.000000

 THERMODYNAMIC PROPERTIES

 P, BAR           0.04400  0.04400  0.04400  0.04400  0.04400  0.04400  0.04400  0.04400
 T, K             1610.00  1620.00  1630.00  1640.00  1650.00  1660.00  1670.00  1680.00
 RHO, KG/CU M    6.6251-4 6.5841-4 6.5436-4 6.5036-4 6.4640-4 6.4249-4 6.3863-4 6.3481-4
 H, KJ/KG         19808.6  19974.8  20141.6  20308.9  20476.8  20645.4  20814.6  20984.6
 U, KJ/KG         13167.2  13292.0  13417.4  13543.4  13669.9  13797.1  13924.9  14053.4
 G, KJ/KG       -145642.4-146670.6-147699.8-148730.0-149761.2-150793.5-151826.8-152861.0
 S, KJ/(KG)(K)   102.7646 102.8675 102.9702 103.0725 103.1746 103.2764 103.3781 103.4795

 M, (1/n)           2.016    2.016    2.016    2.015    2.015    2.015    2.015    2.015
 (dLV/dLP)t      -1.00007 -1.00008 -1.00009 -1.00010 -1.00011 -1.00012 -1.00013 -1.00015
 (dLV/dLT)p        1.0024   1.0027   1.0029   1.0032   1.0036   1.0039   1.0043   1.0047
 Cp, KJ/(KG)(K)   16.5954  16.6486  16.7044  16.7630  16.8244  16.8890  16.9570  17.0284
 GAMMAs            1.3328   1.3316   1.3304   1.3291   1.3277   1.3264   1.3250   1.3235
 SON VEL,M/SEC     2975.2   2983.1   2990.9   2998.6   3006.3   3013.9   3021.4   3028.8

 TRANSPORT PROPERTIES (GASES ONLY)
   CONDUCTIVITY IN UNITS OF MILLIWATTS/(CM)(K)

 VISC,MILLIPOISE  0.28668  0.28795  0.28921  0.29047  0.29174  0.29300  0.29426  0.29552

  WITH EQUILIBRIUM REACTIONS

 Cp, KJ/(KG)(K)   16.5954  16.6486  16.7044  16.7630  16.8244  16.8890  16.9570  17.0284
 CONDUCTIVITY      6.8969   6.9601   7.0256   7.0936   7.1643   7.2379   7.3145   7.3943
 PRANDTL NUMBER    0.6898   0.6888   0.6876   0.6864   0.6851   0.6837   0.6822   0.6806

  WITH FROZEN REACTIONS

 Cp, KJ/(KG)(K)   16.2584  16.2792  16.2999  16.3206  16.3411  16.3616  16.3821  16.4024
 CONDUCTIVITY      6.6406   6.6777   6.7148   6.7520   6.7892   6.8265   6.8638   6.9012
 PRANDTL NUMBER    0.7019   0.7020   0.7020   0.7021   0.7022   0.7023   0.7023   0.7024

 MASS FRACTIONS

 *H               0.00014  0.00016  0.00018  0.00020  0.00022  0.00024  0.00026  0.00029
 *H2              0.99986  0.99984  0.99982  0.99980  0.99978  0.99976  0.99974  0.99971

  * THERMODYNAMIC PROPERTIES FITTED TO 20000.K

 NOTE. WEIGHT FRACTION OF FUEL IN TOTAL FUELS AND OF OXIDANT IN TOTAL OXIDANTS









               THERMODYNAMIC EQUILIBRIUM PROPERTIES AT ASSIGNED

                           TEMPERATURE AND PRESSURE

 CASE =                

             REACTANT                    WT FRACTION      ENERGY      TEMP
                                          (SEE NOTE)     KJ/KG-MOL      K  
 FUEL        H2                           1.0000000         0.000      0.000
 OXIDANT     H2                           1.0000000         0.000      0.000

 O/F=    1.00000  %FUEL= 50.000000  R,EQ.RATIO= 0.000000  PHI,EQ.RATIO=-1.000000

 THERMODYNAMIC PROPERTIES

 P, BAR           0.04400  0.04900  0.04900  0.04900  0.04900  0.04900  0.04900  0.04900
 T, K             1690.00  1550.00  1560.00  1570.00  1580.00  1590.00  1600.00  1610.00
 RHO, KG/CU M    6.3104-4 7.6641-4 7.6149-4 7.5663-4 7.5184-4 7.4710-4 7.4242-4 7.3780-4
 H, KJ/KG         21155.2  18820.6  18983.9  19147.6  19311.7  19476.3  19641.4  19806.9
 U, KJ/KG         14182.6  12427.1  12549.1  12671.6  12794.4  12917.6  13041.4  13165.5
 G, KJ/KG       -153896.4-138807.1-139824.6-140843.1-141862.7-142883.3-143904.9-144927.6
 S, KJ/(KG)(K)   103.5808 101.6953 101.8003 101.9049 102.0091 102.1130 102.2164 102.3196

 M, (1/n)           2.015    2.016    2.016    2.016    2.016    2.016    2.016    2.016
 (dLV/dLP)t      -1.00016 -1.00004 -1.00004 -1.00004 -1.00005 -1.00006 -1.00006 -1.00007
 (dLV/dLT)p        1.0051   1.0012   1.0014   1.0015   1.0017   1.0019   1.0021   1.0023
 Cp, KJ/(KG)(K)   17.1036  16.3114  16.3514  16.3929  16.4362  16.4813  16.5284  16.5777
 GAMMAs            1.3220   1.3395   1.3385   1.3375   1.3365   1.3354   1.3343   1.3332
 SON VEL,M/SEC     3036.1   2926.5   2934.8   2943.1   2951.3   2959.5   2967.6   2975.6

 TRANSPORT PROPERTIES (GASES ONLY)
   CONDUCTIVITY IN UNITS OF MILLIWATTS/(CM)(K)

 VISC,MILLIPOISE  0.29678  0.27908  0.28035  0.28162  0.28288  0.28415  0.28542  0.28668

  WITH EQUILIBRIUM REACTIONS

 Cp, KJ/(KG)(K)   17.1036  16.3114  16.3514  16.3929  16.4362  16.4813  16.5284  16.5777
 CONDUCTIVITY      7.4776   6.5508   6.6023   6.6552   6.7096   6.7657   6.8236   6.8833
 PRANDTL NUMBER    0.6788   0.6949   0.6943   0.6937   0.6930   0.6922   0.6914   0.6904

  WITH FROZEN REACTIONS

 Cp, KJ/(KG)(K)   16.4227  16.1322  16.1534  16.1745  16.1956  16.2166  16.2375  16.2584
 CONDUCTIVITY      6.9386   6.4187   6.4556   6.4925   6.5294   6.5664   6.6034   6.6405
 PRANDTL NUMBER    0.7024   0.7014   0.7015   0.7016   0.7017   0.7017   0.7018   0.7019

 MASS FRACTIONS

 *H               0.00032  0.00007  0.00008  0.00009  0.00010  0.00011  0.00012  0.00014
 *H2              0.99968  0.99993  0.99992  0.99991  0.99990  0.99989  0.99988  0.99986

  * THERMODYNAMIC PROPERTIES FITTED TO 20000.K

 NOTE. WEIGHT FRACTION OF FUEL IN TOTAL FUELS AND OF OXIDANT IN TOTAL OXIDANTS









               THERMODYNAMIC EQUILIBRIUM PROPERTIES AT ASSIGNED

                           TEMPERATURE AND PRESSURE

 CASE =                

             REACTANT                    WT FRACTION      ENERGY      TEMP
                                          (SEE NOTE)     KJ/KG-MOL      K  
 FUEL        H2                           1.0000000         0.000      0.000
 OXIDANT     H2                           1.0000000         0.000      0.000

 O/F=    1.00000  %FUEL= 50.000000  R,EQ.RATIO= 0.000000  PHI,EQ.RATIO=-1.000000

 THERMODYNAMIC PROPERTIES

 P, BAR           0.04900  0.04900  0.04900  0.04900  0.04900  0.04900  0.04900  0.04900
 T, K             1620.00  1630.00  1640.00  1650.00  1660.00  1670.00  1680.00  1690.00
 RHO, KG/CU M    7.3324-4 7.2872-4 7.2427-4 7.1986-4 7.1551-4 7.1121-4 7.0696-4 7.0276-4
 H, KJ/KG         19972.9  20139.5  20306.6  20474.3  20642.6  20811.5  20981.2  21151.5
 U, KJ/KG         13290.2  13415.4  13541.2  13667.5  13794.4  13921.9  14050.1  14178.9
 G, KJ/KG       -145951.3-146976.1-148001.8-149028.6-150056.4-151085.2-152115.0-153145.9
 S, KJ/(KG)(K)   102.4224 102.5249 102.6271 102.7290 102.8307 102.9322 103.0335 103.1345

 M, (1/n)           2.016    2.016    2.016    2.015    2.015    2.015    2.015    2.015
 (dLV/dLP)t      -1.00008 -1.00008 -1.00009 -1.00010 -1.00011 -1.00013 -1.00014 -1.00015
 (dLV/dLT)p        1.0025   1.0028   1.0031   1.0034   1.0037   1.0041   1.0045   1.0049
 Cp, KJ/(KG)(K)   16.6292  16.6832  16.7397  16.7991  16.8613  16.9268  16.9955  17.0678
 GAMMAs            1.3320   1.3308   1.3295   1.3282   1.3269   1.3255   1.3241   1.3226
 SON VEL,M/SEC     2983.5   2991.4   2999.2   3006.9   3014.5   3022.0   3029.4   3036.8

 TRANSPORT PROPERTIES (GASES ONLY)
   CONDUCTIVITY IN UNITS OF MILLIWATTS/(CM)(K)

 VISC,MILLIPOISE  0.28795  0.28921  0.29047  0.29173  0.29299  0.29426  0.29552  0.29678

  WITH EQUILIBRIUM REACTIONS

 Cp, KJ/(KG)(K)   16.6292  16.6832  16.7397  16.7991  16.8613  16.9268  16.9955  17.0678
 CONDUCTIVITY      6.9452   7.0092   7.0756   7.1445   7.2162   7.2907   7.3683   7.4492
 PRANDTL NUMBER    0.6894   0.6884   0.6872   0.6860   0.6846   0.6832   0.6816   0.6800

  WITH FROZEN REACTIONS

 Cp, KJ/(KG)(K)   16.2792  16.2999  16.3205  16.3411  16.3616  16.3820  16.4023  16.4226
 CONDUCTIVITY      6.6776   6.7147   6.7519   6.7891   6.8264   6.8637   6.9010   6.9384
 PRANDTL NUMBER    0.7020   0.7021   0.7021   0.7022   0.7023   0.7023   0.7024   0.7024

 MASS FRACTIONS

 *H               0.00015  0.00017  0.00019  0.00021  0.00023  0.00025  0.00028  0.00030
 *H2              0.99985  0.99983  0.99981  0.99979  0.99977  0.99975  0.99972  0.99970

  * THERMODYNAMIC PROPERTIES FITTED TO 20000.K

 NOTE. WEIGHT FRACTION OF FUEL IN TOTAL FUELS AND OF OXIDANT IN TOTAL OXIDANTS









               THERMODYNAMIC EQUILIBRIUM PROPERTIES AT ASSIGNED

                           TEMPERATURE AND PRESSURE

 CASE =                

             REACTANT                    WT FRACTION      ENERGY      TEMP
                                          (SEE NOTE)     KJ/KG-MOL      K  
 FUEL        H2                           1.0000000         0.000      0.000
 OXIDANT     H2                           1.0000000         0.000      0.000

 O/F=    1.00000  %FUEL= 50.000000  R,EQ.RATIO= 0.000000  PHI,EQ.RATIO=-1.000000

 THERMODYNAMIC PROPERTIES

 P, BAR           0.05400  0.05400  0.05400  0.05400  0.05400  0.05400  0.05400  0.05400
 T, K             1550.00  1560.00  1570.00  1580.00  1590.00  1600.00  1610.00  1620.00
 RHO, KG/CU M    8.4462-4 8.3920-4 8.3384-4 8.2856-4 8.2334-4 8.1818-4 8.1309-4 8.0806-4
 H, KJ/KG         18819.8  18983.0  19146.7  19310.7  19475.2  19640.1  19805.5  19971.3
 U, KJ/KG         12426.4  12548.3  12670.6  12793.4  12916.5  13040.1  13164.1  13288.7
 G, KJ/KG       -138185.9-139199.4-140213.9-141229.4-142246.0-143263.7-144282.3-145302.0
 S, KJ/(KG)(K)   101.2940 101.3990 101.5035 101.6077 101.7114 101.8148 101.9179 102.0206

 M, (1/n)           2.016    2.016    2.016    2.016    2.016    2.016    2.016    2.016
 (dLV/dLP)t      -1.00003 -1.00004 -1.00004 -1.00005 -1.00005 -1.00006 -1.00007 -1.00007
 (dLV/dLT)p        1.0012   1.0013   1.0015   1.0016   1.0018   1.0020   1.0022   1.0024
 Cp, KJ/(KG)(K)   16.3029  16.3419  16.3825  16.4248  16.4687  16.5146  16.5625  16.6126
 GAMMAs            1.3397   1.3387   1.3378   1.3367   1.3357   1.3346   1.3335   1.3323
 SON VEL,M/SEC     2926.7   2935.0   2943.4   2951.6   2959.8   2967.9   2975.9   2983.9

 TRANSPORT PROPERTIES (GASES ONLY)
   CONDUCTIVITY IN UNITS OF MILLIWATTS/(CM)(K)

 VISC,MILLIPOISE  0.27908  0.28035  0.28162  0.28288  0.28415  0.28542  0.28668  0.28794

  WITH EQUILIBRIUM REACTIONS

 Cp, KJ/(KG)(K)   16.3029  16.3419  16.3825  16.4248  16.4687  16.5146  16.5625  16.6126
 CONDUCTIVITY      6.5445   6.5953   6.6474   6.7010   6.7562   6.8130   6.8717   6.9324
 PRANDTL NUMBER    0.6952   0.6947   0.6940   0.6934   0.6926   0.6918   0.6910   0.6900

  WITH FROZEN REACTIONS

 Cp, KJ/(KG)(K)   16.1322  16.1534  16.1745  16.1956  16.2166  16.2375  16.2584  16.2792
 CONDUCTIVITY      6.4187   6.4555   6.4924   6.5294   6.5663   6.6034   6.6404   6.6775
 PRANDTL NUMBER    0.7014   0.7015   0.7016   0.7017   0.7018   0.7018   0.7019   0.7020

 MASS FRACTIONS

 *H               0.00007  0.00008  0.00008  0.00009  0.00011  0.00012  0.00013  0.00014
 *H2              0.99993  0.99992  0.99992  0.99991  0.99989  0.99988  0.99987  0.99986

  * THERMODYNAMIC PROPERTIES FITTED TO 20000.K

 NOTE. WEIGHT FRACTION OF FUEL IN TOTAL FUELS AND OF OXIDANT IN TOTAL OXIDANTS









               THERMODYNAMIC EQUILIBRIUM PROPERTIES AT ASSIGNED

                           TEMPERATURE AND PRESSURE

 CASE =                

             REACTANT                    WT FRACTION      ENERGY      TEMP
                                          (SEE NOTE)     KJ/KG-MOL      K  
 FUEL        H2                           1.0000000         0.000      0.000
 OXIDANT     H2                           1.0000000         0.000      0.000

 O/F=    1.00000  %FUEL= 50.000000  R,EQ.RATIO= 0.000000  PHI,EQ.RATIO=-1.000000

 THERMODYNAMIC PROPERTIES

 P, BAR           0.05400  0.05400  0.05400  0.05400  0.05400  0.05400  0.05400  0.06000
 T, K             1630.00  1640.00  1650.00  1660.00  1670.00  1680.00  1690.00  1550.00
 RHO, KG/CU M    8.0309-4 7.9818-4 7.9333-4 7.8853-4 7.8379-4 7.7911-4 7.7448-4 9.3847-4
 H, KJ/KG         20137.7  20304.6  20472.1  20640.2  20808.9  20978.2  21148.2  18819.0
 U, KJ/KG         13413.7  13539.3  13665.4  13792.0  13919.3  14047.2  14175.8  12425.6
 G, KJ/KG       -146322.7-147344.5-148367.2-149391.0-150415.8-151441.6-152468.4-137512.3
 S, KJ/(KG)(K)   102.1230 102.2251 102.3269 102.4284 102.5298 102.6308 102.7318 100.8589

 M, (1/n)           2.016    2.016    2.015    2.015    2.015    2.015    2.015    2.016
 (dLV/dLP)t      -1.00008 -1.00009 -1.00010 -1.00011 -1.00012 -1.00013 -1.00014 -1.00003
 (dLV/dLT)p        1.0027   1.0029   1.0032   1.0035   1.0039   1.0042   1.0046   1.0011
 Cp, KJ/(KG)(K)   16.6650  16.7198  16.7773  16.8376  16.9009  16.9674  17.0372  16.2941
 GAMMAs            1.3312   1.3299   1.3287   1.3274   1.3260   1.3246   1.3232   1.3399
 SON VEL,M/SEC     2991.8   2999.6   3007.3   3015.0   3022.6   3030.0   3037.4   2926.9

 TRANSPORT PROPERTIES (GASES ONLY)
   CONDUCTIVITY IN UNITS OF MILLIWATTS/(CM)(K)

 VISC,MILLIPOISE  0.28921  0.29047  0.29173  0.29299  0.29425  0.29551  0.29677  0.27908

  WITH EQUILIBRIUM REACTIONS

 Cp, KJ/(KG)(K)   16.6650  16.7198  16.7773  16.8376  16.9009  16.9674  17.0372  16.2941
 CONDUCTIVITY      6.9952   7.0602   7.1276   7.1976   7.2703   7.3460   7.4248   6.5380
 PRANDTL NUMBER    0.6890   0.6879   0.6867   0.6854   0.6840   0.6826   0.6810   0.6955

  WITH FROZEN REACTIONS

 Cp, KJ/(KG)(K)   16.2999  16.3205  16.3411  16.3615  16.3820  16.4023  16.4226  16.1322
 CONDUCTIVITY      6.7146   6.7518   6.7890   6.8262   6.8635   6.9009   6.9382   6.4186
 PRANDTL NUMBER    0.7021   0.7021   0.7022   0.7023   0.7023   0.7024   0.7024   0.7014

 MASS FRACTIONS

 *H               0.00016  0.00018  0.00020  0.00022  0.00024  0.00026  0.00029  0.00006
 *H2              0.99984  0.99982  0.99980  0.99978  0.99976  0.99974  0.99971  0.99994

  * THERMODYNAMIC PROPERTIES FITTED TO 20000.K

 NOTE. WEIGHT FRACTION OF FUEL IN TOTAL FUELS AND OF OXIDANT IN TOTAL OXIDANTS









               THERMODYNAMIC EQUILIBRIUM PROPERTIES AT ASSIGNED

                           TEMPERATURE AND PRESSURE

 CASE =                

             REACTANT                    WT FRACTION      ENERGY      TEMP
                                          (SEE NOTE)     KJ/KG-MOL      K  
 FUEL        H2                           1.0000000         0.000      0.000
 OXIDANT     H2                           1.0000000         0.000      0.000

 O/F=    1.00000  %FUEL= 50.000000  R,EQ.RATIO= 0.000000  PHI,EQ.RATIO=-1.000000

 THERMODYNAMIC PROPERTIES

 P, BAR           0.06000  0.06000  0.06000  0.06000  0.06000  0.06000  0.06000  0.06000
 T, K             1560.00  1570.00  1580.00  1590.00  1600.00  1610.00  1620.00  1630.00
 RHO, KG/CU M    9.3245-4 9.2650-4 9.2063-4 9.1483-4 9.0910-4 9.0344-4 8.9785-4 8.9233-4
 H, KJ/KG         18982.2  19145.7  19309.6  19474.0  19638.7  19804.0  19969.7  20135.9
 U, KJ/KG         12547.5  12669.7  12792.3  12915.3  13038.8  13162.7  13287.1  13411.9
 G, KJ/KG       -138521.4-139531.6-140542.8-141555.0-142568.3-143582.6-144597.9-145614.3
 S, KJ/(KG)(K)   100.9638 101.0683 101.1724 101.2761 101.3794 101.4823 101.5849 101.6872

 M, (1/n)           2.016    2.016    2.016    2.016    2.016    2.016    2.016    2.016
 (dLV/dLP)t      -1.00004 -1.00004 -1.00004 -1.00005 -1.00006 -1.00006 -1.00007 -1.00008
 (dLV/dLT)p        1.0012   1.0014   1.0015   1.0017   1.0019   1.0021   1.0023   1.0025
 Cp, KJ/(KG)(K)   16.3323  16.3718  16.4130  16.4558  16.5004  16.5469  16.5954  16.6462
 GAMMAs            1.3390   1.3380   1.3370   1.3360   1.3349   1.3338   1.3327   1.3315
 SON VEL,M/SEC     2935.3   2943.6   2951.9   2960.1   2968.2   2976.3   2984.3   2992.2

 TRANSPORT PROPERTIES (GASES ONLY)
   CONDUCTIVITY IN UNITS OF MILLIWATTS/(CM)(K)

 VISC,MILLIPOISE  0.28035  0.28162  0.28288  0.28415  0.28541  0.28668  0.28794  0.28920

  WITH EQUILIBRIUM REACTIONS

 Cp, KJ/(KG)(K)   16.3323  16.3718  16.4130  16.4558  16.5004  16.5469  16.5954  16.6462
 CONDUCTIVITY      6.5880   6.6394   6.6921   6.7464   6.8022   6.8598   6.9192   6.9807
 PRANDTL NUMBER    0.6950   0.6944   0.6938   0.6931   0.6923   0.6915   0.6906   0.6896

  WITH FROZEN REACTIONS

 Cp, KJ/(KG)(K)   16.1534  16.1745  16.1956  16.2166  16.2375  16.2583  16.2791  16.2998
 CONDUCTIVITY      6.4555   6.4924   6.5293   6.5663   6.6033   6.6403   6.6774   6.7145
 PRANDTL NUMBER    0.7015   0.7016   0.7017   0.7018   0.7018   0.7019   0.7020   0.7021

 MASS FRACTIONS

 *H               0.00007  0.00008  0.00009  0.00010  0.00011  0.00012  0.00014  0.00015
 *H2              0.99993  0.99992  0.99991  0.99990  0.99989  0.99988  0.99986  0.99985

  * THERMODYNAMIC PROPERTIES FITTED TO 20000.K

 NOTE. WEIGHT FRACTION OF FUEL IN TOTAL FUELS AND OF OXIDANT IN TOTAL OXIDANTS









               THERMODYNAMIC EQUILIBRIUM PROPERTIES AT ASSIGNED

                           TEMPERATURE AND PRESSURE

 CASE =                

             REACTANT                    WT FRACTION      ENERGY      TEMP
                                          (SEE NOTE)     KJ/KG-MOL      K  
 FUEL        H2                           1.0000000         0.000      0.000
 OXIDANT     H2                           1.0000000         0.000      0.000

 O/F=    1.00000  %FUEL= 50.000000  R,EQ.RATIO= 0.000000  PHI,EQ.RATIO=-1.000000

 THERMODYNAMIC PROPERTIES

 P, BAR           0.06000  0.06000  0.06000  0.06000  0.06000  0.06000  0.06700  0.06700
 T, K             1640.00  1650.00  1660.00  1670.00  1680.00  1690.00  1550.00  1560.00
 RHO, KG/CU M    8.8688-4 8.8148-4 8.7616-4 8.7089-4 8.6569-4 8.6054-4 1.0480-3 1.0412-3
 H, KJ/KG         20302.6  20469.9  20637.7  20806.2  20975.2  21144.9  18818.3  18981.3
 U, KJ/KG         13537.3  13663.2  13789.6  13916.7  14044.3  14172.6  12424.9  12546.6
 G, KJ/KG       -146631.7-147650.1-148669.5-149689.9-150711.4-151733.8-136806.8-137811.3
 S, KJ/(KG)(K)   101.7892 101.8909 101.9923 102.0935 102.1944 102.2951 100.4033 100.5081

 M, (1/n)           2.016    2.016    2.015    2.015    2.015    2.015    2.016    2.016
 (dLV/dLP)t      -1.00008 -1.00009 -1.00010 -1.00011 -1.00012 -1.00014 -1.00003 -1.00003
 (dLV/dLT)p        1.0028   1.0031   1.0033   1.0037   1.0040   1.0044   1.0011   1.0012
 Cp, KJ/(KG)(K)   16.6993  16.7549  16.8131  16.8742  16.9383  17.0056  16.2854  16.3226
 GAMMAs            1.3304   1.3291   1.3279   1.3266   1.3252   1.3238   1.3401   1.3392
 SON VEL,M/SEC     3000.0   3007.8   3015.5   3023.1   3030.7   3038.1   2927.1   2935.5

 TRANSPORT PROPERTIES (GASES ONLY)
   CONDUCTIVITY IN UNITS OF MILLIWATTS/(CM)(K)

 VISC,MILLIPOISE  0.29047  0.29173  0.29299  0.29425  0.29551  0.29677  0.27908  0.28035

  WITH EQUILIBRIUM REACTIONS

 Cp, KJ/(KG)(K)   16.6993  16.7549  16.8131  16.8742  16.9383  17.0056  16.2854  16.3226
 CONDUCTIVITY      7.0442   7.1101   7.1784   7.2493   7.3230   7.3996   6.5316   6.5809
 PRANDTL NUMBER    0.6886   0.6875   0.6862   0.6849   0.6835   0.6820   0.6958   0.6953

  WITH FROZEN REACTIONS

 Cp, KJ/(KG)(K)   16.3205  16.3410  16.3615  16.3819  16.4022  16.4225  16.1322  16.1534
 CONDUCTIVITY      6.7517   6.7889   6.8261   6.8634   6.9007   6.9381   6.4186   6.4554
 PRANDTL NUMBER    0.7021   0.7022   0.7023   0.7023   0.7024   0.7025   0.7014   0.7015

 MASS FRACTIONS

 *H               0.00017  0.00019  0.00021  0.00023  0.00025  0.00027  0.00006  0.00007
 *H2              0.99983  0.99981  0.99979  0.99977  0.99975  0.99973  0.99994  0.99993

  * THERMODYNAMIC PROPERTIES FITTED TO 20000.K

 NOTE. WEIGHT FRACTION OF FUEL IN TOTAL FUELS AND OF OXIDANT IN TOTAL OXIDANTS









               THERMODYNAMIC EQUILIBRIUM PROPERTIES AT ASSIGNED

                           TEMPERATURE AND PRESSURE

 CASE =                

             REACTANT                    WT FRACTION      ENERGY      TEMP
                                          (SEE NOTE)     KJ/KG-MOL      K  
 FUEL        H2                           1.0000000         0.000      0.000
 OXIDANT     H2                           1.0000000         0.000      0.000

 O/F=    1.00000  %FUEL= 50.000000  R,EQ.RATIO= 0.000000  PHI,EQ.RATIO=-1.000000

 THERMODYNAMIC PROPERTIES

 P, BAR           0.06700  0.06700  0.06700  0.06700  0.06700  0.06700  0.06700  0.06700
 T, K             1570.00  1580.00  1590.00  1600.00  1610.00  1620.00  1630.00  1640.00
 RHO, KG/CU M    1.0346-3 1.0280-3 1.0216-3 1.0152-3 1.0088-3 1.0026-3 9.9644-4 9.9035-4
 H, KJ/KG         19144.7  19308.5  19472.8  19637.4  19802.5  19968.0  20134.1  20300.6
 U, KJ/KG         12668.8  12791.3  12914.2  13037.5  13161.3  13285.5  13410.2  13535.3
 G, KJ/KG       -138816.9-139823.6-140831.3-141840.0-142849.7-143860.5-144872.3-145885.1
 S, KJ/(KG)(K)   100.6125 100.7165 100.8201 100.9234 101.0262 101.1287 101.2309 101.3328

 M, (1/n)           2.016    2.016    2.016    2.016    2.016    2.016    2.016    2.016
 (dLV/dLP)t      -1.00004 -1.00004 -1.00005 -1.00005 -1.00006 -1.00006 -1.00007 -1.00008
 (dLV/dLT)p        1.0013   1.0015   1.0016   1.0018   1.0020   1.0022   1.0024   1.0026
 Cp, KJ/(KG)(K)   16.3612  16.4013  16.4429  16.4862  16.5314  16.5784  16.6276  16.6789
 GAMMAs            1.3382   1.3372   1.3362   1.3352   1.3341   1.3330   1.3319   1.3308
 SON VEL,M/SEC     2943.8   2952.1   2960.4   2968.5   2976.6   2984.6   2992.6   3000.5

 TRANSPORT PROPERTIES (GASES ONLY)
   CONDUCTIVITY IN UNITS OF MILLIWATTS/(CM)(K)

 VISC,MILLIPOISE  0.28161  0.28288  0.28415  0.28541  0.28668  0.28794  0.28920  0.29046

  WITH EQUILIBRIUM REACTIONS

 Cp, KJ/(KG)(K)   16.3612  16.4013  16.4429  16.4862  16.5314  16.5784  16.6276  16.6789
 CONDUCTIVITY      6.6315   6.6833   6.7366   6.7915   6.8479   6.9062   6.9663   7.0284
 PRANDTL NUMBER    0.6948   0.6942   0.6936   0.6928   0.6921   0.6912   0.6903   0.6893

  WITH FROZEN REACTIONS

 Cp, KJ/(KG)(K)   16.1745  16.1955  16.2165  16.2375  16.2583  16.2791  16.2998  16.3204
 CONDUCTIVITY      6.4923   6.5293   6.5662   6.6032   6.6402   6.6773   6.7144   6.7516
 PRANDTL NUMBER    0.7016   0.7017   0.7018   0.7018   0.7019   0.7020   0.7021   0.7021

 MASS FRACTIONS

 *H               0.00008  0.00008  0.00009  0.00011  0.00012  0.00013  0.00014  0.00016
 *H2              0.99992  0.99992  0.99991  0.99989  0.99988  0.99987  0.99986  0.99984

  * THERMODYNAMIC PROPERTIES FITTED TO 20000.K

 NOTE. WEIGHT FRACTION OF FUEL IN TOTAL FUELS AND OF OXIDANT IN TOTAL OXIDANTS









               THERMODYNAMIC EQUILIBRIUM PROPERTIES AT ASSIGNED

                           TEMPERATURE AND PRESSURE

 CASE =                

             REACTANT                    WT FRACTION      ENERGY      TEMP
                                          (SEE NOTE)     KJ/KG-MOL      K  
 FUEL        H2                           1.0000000         0.000      0.000
 OXIDANT     H2                           1.0000000         0.000      0.000

 O/F=    1.00000  %FUEL= 50.000000  R,EQ.RATIO= 0.000000  PHI,EQ.RATIO=-1.000000

 THERMODYNAMIC PROPERTIES

 P, BAR           0.06700  0.06700  0.06700  0.06700  0.06700  0.07400  0.07400  0.07400
 T, K             1650.00  1660.00  1670.00  1680.00  1690.00  1550.00  1560.00  1570.00
 RHO, KG/CU M    9.8433-4 9.7839-4 9.7251-4 9.6670-4 9.6096-4 1.1575-3 1.1500-3 1.1427-3
 H, KJ/KG         20467.6  20635.3  20803.4  20972.2  21141.6  18817.6  18980.6  19143.9
 U, KJ/KG         13661.0  13787.2  13914.0  14041.4  14169.4  12424.3  12545.9  12668.0
 G, KJ/KG       -146899.0-147913.8-148929.7-149946.5-150964.4-136171.5-137171.9-138173.4
 S, KJ/(KG)(K)   101.4343 101.5356 101.6366 101.7374 101.8379  99.9930 100.0977 100.2021

 M, (1/n)           2.016    2.015    2.015    2.015    2.015    2.016    2.016    2.016
 (dLV/dLP)t      -1.00009 -1.00010 -1.00011 -1.00012 -1.00013 -1.00003 -1.00003 -1.00004
 (dLV/dLT)p        1.0029   1.0032   1.0035   1.0038   1.0042   1.0010   1.0011   1.0012
 Cp, KJ/(KG)(K)   16.7326  16.7888  16.8477  16.9095  16.9742  16.2780  16.3144  16.3522
 GAMMAs            1.3296   1.3283   1.3271   1.3258   1.3244   1.3403   1.3393   1.3384
 SON VEL,M/SEC     3008.3   3016.0   3023.7   3031.3   3038.8   2927.2   2935.7   2944.1

 TRANSPORT PROPERTIES (GASES ONLY)
   CONDUCTIVITY IN UNITS OF MILLIWATTS/(CM)(K)

 VISC,MILLIPOISE  0.29172  0.29298  0.29424  0.29550  0.29676  0.27908  0.28035  0.28161

  WITH EQUILIBRIUM REACTIONS

 Cp, KJ/(KG)(K)   16.7326  16.7888  16.8477  16.9095  16.9742  16.2780  16.3144  16.3522
 CONDUCTIVITY      7.0927   7.1593   7.2284   7.3001   7.3747   6.5260   6.5748   6.6247
 PRANDTL NUMBER    0.6882   0.6871   0.6858   0.6845   0.6831   0.6961   0.6956   0.6951

  WITH FROZEN REACTIONS

 Cp, KJ/(KG)(K)   16.3410  16.3614  16.3819  16.4022  16.4224  16.1321  16.1533  16.1745
 CONDUCTIVITY      6.7887   6.8260   6.8632   6.9005   6.9379   6.4185   6.4554   6.4923
 PRANDTL NUMBER    0.7022   0.7023   0.7023   0.7024   0.7025   0.7014   0.7015   0.7016

 MASS FRACTIONS

 *H               0.00018  0.00019  0.00021  0.00024  0.00026  0.00006  0.00006  0.00007
 *H2              0.99982  0.99981  0.99979  0.99976  0.99974  0.99994  0.99994  0.99993

  * THERMODYNAMIC PROPERTIES FITTED TO 20000.K

 NOTE. WEIGHT FRACTION OF FUEL IN TOTAL FUELS AND OF OXIDANT IN TOTAL OXIDANTS









               THERMODYNAMIC EQUILIBRIUM PROPERTIES AT ASSIGNED

                           TEMPERATURE AND PRESSURE

 CASE =                

             REACTANT                    WT FRACTION      ENERGY      TEMP
                                          (SEE NOTE)     KJ/KG-MOL      K  
 FUEL        H2                           1.0000000         0.000      0.000
 OXIDANT     H2                           1.0000000         0.000      0.000

 O/F=    1.00000  %FUEL= 50.000000  R,EQ.RATIO= 0.000000  PHI,EQ.RATIO=-1.000000

 THERMODYNAMIC PROPERTIES

 P, BAR           0.07400  0.07400  0.07400  0.07400  0.07400  0.07400  0.07400  0.07400
 T, K             1580.00  1590.00  1600.00  1610.00  1620.00  1630.00  1640.00  1650.00
 RHO, KG/CU M    1.1354-3 1.1283-3 1.1212-3 1.1143-3 1.1074-3 1.1006-3 1.0938-3 1.0872-3
 H, KJ/KG         19307.6  19471.7  19636.3  19801.2  19966.6  20132.5  20298.9  20465.7
 U, KJ/KG         12790.4  12913.2  13036.4  13160.0  13284.1  13408.6  13533.7  13659.2
 G, KJ/KG       -139176.0-140179.5-141184.1-142189.8-143196.5-144204.1-145212.9-146222.6
 S, KJ/(KG)(K)   100.3061 100.4096 100.5128 100.6155 100.7180 100.8200 100.9218 101.0232

 M, (1/n)           2.016    2.016    2.016    2.016    2.016    2.016    2.016    2.016
 (dLV/dLP)t      -1.00004 -1.00004 -1.00005 -1.00006 -1.00006 -1.00007 -1.00008 -1.00008
 (dLV/dLT)p        1.0014   1.0015   1.0017   1.0019   1.0021   1.0023   1.0025   1.0027
 Cp, KJ/(KG)(K)   16.3913  16.4319  16.4742  16.5181  16.5639  16.6116  16.6615  16.7136
 GAMMAs            1.3374   1.3365   1.3354   1.3344   1.3333   1.3322   1.3311   1.3299
 SON VEL,M/SEC     2952.4   2960.6   2968.8   2976.9   2985.0   2993.0   3000.9   3008.7

 TRANSPORT PROPERTIES (GASES ONLY)
   CONDUCTIVITY IN UNITS OF MILLIWATTS/(CM)(K)

 VISC,MILLIPOISE  0.28288  0.28415  0.28541  0.28667  0.28794  0.28920  0.29046  0.29172

  WITH EQUILIBRIUM REACTIONS

 Cp, KJ/(KG)(K)   16.3913  16.4319  16.4742  16.5181  16.5639  16.6116  16.6615  16.7136
 CONDUCTIVITY      6.6758   6.7283   6.7823   6.8378   6.8950   6.9540   7.0149   7.0779
 PRANDTL NUMBER    0.6946   0.6939   0.6933   0.6925   0.6917   0.6908   0.6899   0.6889

  WITH FROZEN REACTIONS

 Cp, KJ/(KG)(K)   16.1955  16.2165  16.2374  16.2583  16.2791  16.2998  16.3204  16.3409
 CONDUCTIVITY      6.5292   6.5662   6.6032   6.6402   6.6772   6.7143   6.7515   6.7886
 PRANDTL NUMBER    0.7017   0.7018   0.7018   0.7019   0.7020   0.7021   0.7021   0.7022

 MASS FRACTIONS

 *H               0.00008  0.00009  0.00010  0.00011  0.00012  0.00014  0.00015  0.00017
 *H2              0.99992  0.99991  0.99990  0.99989  0.99988  0.99986  0.99985  0.99983

  * THERMODYNAMIC PROPERTIES FITTED TO 20000.K

 NOTE. WEIGHT FRACTION OF FUEL IN TOTAL FUELS AND OF OXIDANT IN TOTAL OXIDANTS









               THERMODYNAMIC EQUILIBRIUM PROPERTIES AT ASSIGNED

                           TEMPERATURE AND PRESSURE

 CASE =                

             REACTANT                    WT FRACTION      ENERGY      TEMP
                                          (SEE NOTE)     KJ/KG-MOL      K  
 FUEL        H2                           1.0000000         0.000      0.000
 OXIDANT     H2                           1.0000000         0.000      0.000

 O/F=    1.00000  %FUEL= 50.000000  R,EQ.RATIO= 0.000000  PHI,EQ.RATIO=-1.000000

 THERMODYNAMIC PROPERTIES

 P, BAR           0.07400  0.07400  0.07400  0.07400  0.08250  0.08250  0.08250  0.08250
 T, K             1660.00  1670.00  1680.00  1690.00  1550.00  1560.00  1570.00  1580.00
 RHO, KG/CU M    1.0806-3 1.0741-3 1.0677-3 1.0614-3 1.2904-3 1.2821-3 1.2740-3 1.2659-3
 H, KJ/KG         20633.1  20801.1  20969.7  21138.8  18816.9  18979.8  19143.0  19306.7
 U, KJ/KG         13785.2  13911.8  14038.9  14166.7  12423.6  12545.2  12667.1  12789.4
 G, KJ/KG       -147233.3-148245.1-149257.8-150271.6-135476.3-136472.3-137469.3-138467.3
 S, KJ/(KG)(K)   101.1244 101.2253 101.3259 101.4263  99.5440  99.6488  99.7531  99.8569

 M, (1/n)           2.016    2.015    2.015    2.015    2.016    2.016    2.016    2.016
 (dLV/dLP)t      -1.00009 -1.00010 -1.00011 -1.00012 -1.00003 -1.00003 -1.00003 -1.00004
 (dLV/dLT)p        1.0030   1.0033   1.0036   1.0040   1.0010   1.0011   1.0012   1.0013
 Cp, KJ/(KG)(K)   16.7681  16.8251  16.8848  16.9474  16.2702  16.3059  16.3427  16.3809
 GAMMAs            1.3288   1.3275   1.3262   1.3249   1.3404   1.3395   1.3386   1.3377
 SON VEL,M/SEC     3016.5   3024.2   3031.8   3039.3   2927.4   2935.9   2944.3   2952.6

 TRANSPORT PROPERTIES (GASES ONLY)
   CONDUCTIVITY IN UNITS OF MILLIWATTS/(CM)(K)

 VISC,MILLIPOISE  0.29298  0.29424  0.29550  0.29676  0.27908  0.28034  0.28161  0.28288

  WITH EQUILIBRIUM REACTIONS

 Cp, KJ/(KG)(K)   16.7681  16.8251  16.8848  16.9474  16.2702  16.3059  16.3427  16.3809
 CONDUCTIVITY      7.1430   7.2106   7.2806   7.3533   6.5203   6.5684   6.6176   6.6680
 PRANDTL NUMBER    0.6878   0.6866   0.6853   0.6839   0.6964   0.6959   0.6955   0.6949

  WITH FROZEN REACTIONS

 Cp, KJ/(KG)(K)   16.3614  16.3818  16.4021  16.4224  16.1321  16.1533  16.1745  16.1955
 CONDUCTIVITY      6.8258   6.8631   6.9004   6.9377   6.4185   6.4553   6.4922   6.5292
 PRANDTL NUMBER    0.7023   0.7023   0.7024   0.7025   0.7014   0.7015   0.7016   0.7017

 MASS FRACTIONS

 *H               0.00018  0.00020  0.00022  0.00025  0.00005  0.00006  0.00007  0.00008
 *H2              0.99982  0.99980  0.99978  0.99975  0.99995  0.99994  0.99993  0.99992

  * THERMODYNAMIC PROPERTIES FITTED TO 20000.K

 NOTE. WEIGHT FRACTION OF FUEL IN TOTAL FUELS AND OF OXIDANT IN TOTAL OXIDANTS









               THERMODYNAMIC EQUILIBRIUM PROPERTIES AT ASSIGNED

                           TEMPERATURE AND PRESSURE

 CASE =                

             REACTANT                    WT FRACTION      ENERGY      TEMP
                                          (SEE NOTE)     KJ/KG-MOL      K  
 FUEL        H2                           1.0000000         0.000      0.000
 OXIDANT     H2                           1.0000000         0.000      0.000

 O/F=    1.00000  %FUEL= 50.000000  R,EQ.RATIO= 0.000000  PHI,EQ.RATIO=-1.000000

 THERMODYNAMIC PROPERTIES

 P, BAR           0.08250  0.08250  0.08250  0.08250  0.08250  0.08250  0.08250  0.08250
 T, K             1590.00  1600.00  1610.00  1620.00  1630.00  1640.00  1650.00  1660.00
 RHO, KG/CU M    1.2579-3 1.2500-3 1.2423-3 1.2346-3 1.2270-3 1.2195-3 1.2121-3 1.2048-3
 H, KJ/KG         19470.7  19635.1  19799.9  19965.2  20130.9  20297.1  20463.8  20631.0
 U, KJ/KG         12912.1  13035.2  13158.8  13282.7  13407.1  13531.9  13657.2  13783.1
 G, KJ/KG       -139466.4-140466.5-141467.7-142469.8-143473.0-144477.3-145482.5-146488.7
 S, KJ/(KG)(K)    99.9604 100.0635 100.1662 100.2685 100.3705 100.4722 100.5735 100.6745

 M, (1/n)           2.016    2.016    2.016    2.016    2.016    2.016    2.016    2.016
 (dLV/dLP)t      -1.00004 -1.00005 -1.00005 -1.00006 -1.00006 -1.00007 -1.00008 -1.00009
 (dLV/dLT)p        1.0015   1.0016   1.0018   1.0020   1.0022   1.0024   1.0026   1.0029
 Cp, KJ/(KG)(K)   16.4205  16.4616  16.5043  16.5488  16.5951  16.6434  16.6938  16.7465
 GAMMAs            1.3367   1.3357   1.3347   1.3337   1.3326   1.3315   1.3303   1.3292
 SON VEL,M/SEC     2960.9   2969.1   2977.2   2985.3   2993.3   3001.3   3009.2   3017.0

 TRANSPORT PROPERTIES (GASES ONLY)
   CONDUCTIVITY IN UNITS OF MILLIWATTS/(CM)(K)

 VISC,MILLIPOISE  0.28414  0.28541  0.28667  0.28794  0.28920  0.29046  0.29172  0.29298

  WITH EQUILIBRIUM REACTIONS

 Cp, KJ/(KG)(K)   16.4205  16.4616  16.5043  16.5488  16.5951  16.6434  16.6938  16.7465
 CONDUCTIVITY      6.7197   6.7727   6.8273   6.8834   6.9412   7.0009   7.0625   7.1261
 PRANDTL NUMBER    0.6943   0.6937   0.6930   0.6922   0.6914   0.6905   0.6895   0.6885

  WITH FROZEN REACTIONS

 Cp, KJ/(KG)(K)   16.2165  16.2374  16.2583  16.2790  16.2997  16.3203  16.3409  16.3614
 CONDUCTIVITY      6.5661   6.6031   6.6401   6.6772   6.7142   6.7514   6.7885   6.8257
 PRANDTL NUMBER    0.7018   0.7018   0.7019   0.7020   0.7021   0.7021   0.7022   0.7023

 MASS FRACTIONS

 *H               0.00009  0.00009  0.00011  0.00012  0.00013  0.00014  0.00016  0.00017
 *H2              0.99991  0.99991  0.99989  0.99988  0.99987  0.99986  0.99984  0.99983

  * THERMODYNAMIC PROPERTIES FITTED TO 20000.K

 NOTE. WEIGHT FRACTION OF FUEL IN TOTAL FUELS AND OF OXIDANT IN TOTAL OXIDANTS









               THERMODYNAMIC EQUILIBRIUM PROPERTIES AT ASSIGNED

                           TEMPERATURE AND PRESSURE

 CASE =                

             REACTANT                    WT FRACTION      ENERGY      TEMP
                                          (SEE NOTE)     KJ/KG-MOL      K  
 FUEL        H2                           1.0000000         0.000      0.000
 OXIDANT     H2                           1.0000000         0.000      0.000

 O/F=    1.00000  %FUEL= 50.000000  R,EQ.RATIO= 0.000000  PHI,EQ.RATIO=-1.000000

 THERMODYNAMIC PROPERTIES

 P, BAR           0.08250  0.08250  0.08250  0.09100  0.09100  0.09100  0.09100  0.09100
 T, K             1670.00  1680.00  1690.00  1550.00  1560.00  1570.00  1580.00  1590.00
 RHO, KG/CU M    1.1975-3 1.1904-3 1.1833-3 1.4234-3 1.4142-3 1.4052-3 1.3963-3 1.3875-3
 H, KJ/KG         20798.7  20967.0  21135.9  18816.3  18979.1  19142.3  19305.8  19469.8
 U, KJ/KG         13909.4  14036.4  14163.9  12423.0  12544.5  12666.4  12788.6  12911.3
 G, KJ/KG       -147496.0-148504.2-149513.5-134849.4-135841.3-136834.2-137828.2-138823.3
 S, KJ/(KG)(K)   100.7753 100.8757 100.9760  99.1392  99.2439  99.3481  99.4519  99.5554

 M, (1/n)           2.015    2.015    2.015    2.016    2.016    2.016    2.016    2.016
 (dLV/dLP)t      -1.00010 -1.00011 -1.00012 -1.00003 -1.00003 -1.00003 -1.00004 -1.00004
 (dLV/dLT)p        1.0031   1.0034   1.0038   1.0009   1.0010   1.0011   1.0012   1.0014
 Cp, KJ/(KG)(K)   16.8016  16.8592  16.9196  16.2636  16.2986  16.3347  16.3720  16.4107
 GAMMAs            1.3280   1.3267   1.3255   1.3406   1.3397   1.3388   1.3379   1.3369
 SON VEL,M/SEC     3024.7   3032.3   3039.9   2927.6   2936.0   2944.5   2952.8   2961.1

 TRANSPORT PROPERTIES (GASES ONLY)
   CONDUCTIVITY IN UNITS OF MILLIWATTS/(CM)(K)

 VISC,MILLIPOISE  0.29424  0.29550  0.29675  0.27907  0.28034  0.28161  0.28288  0.28414

  WITH EQUILIBRIUM REACTIONS

 Cp, KJ/(KG)(K)   16.8016  16.8592  16.9196  16.2636  16.2986  16.3347  16.3720  16.4107
 CONDUCTIVITY      7.1921   7.2604   7.3312   6.5154   6.5630   6.6116   6.6613   6.7123
 PRANDTL NUMBER    0.6874   0.6862   0.6849   0.6966   0.6962   0.6958   0.6952   0.6947

  WITH FROZEN REACTIONS

 Cp, KJ/(KG)(K)   16.3818  16.4021  16.4223  16.1321  16.1533  16.1744  16.1955  16.2165
 CONDUCTIVITY      6.8630   6.9002   6.9375   6.4185   6.4553   6.4922   6.5291   6.5661
 PRANDTL NUMBER    0.7023   0.7024   0.7025   0.7014   0.7015   0.7016   0.7017   0.7018

 MASS FRACTIONS

 *H               0.00019  0.00021  0.00023  0.00005  0.00006  0.00007  0.00007  0.00008
 *H2              0.99981  0.99979  0.99977  0.99995  0.99994  0.99993  0.99993  0.99992

  * THERMODYNAMIC PROPERTIES FITTED TO 20000.K

 NOTE. WEIGHT FRACTION OF FUEL IN TOTAL FUELS AND OF OXIDANT IN TOTAL OXIDANTS









               THERMODYNAMIC EQUILIBRIUM PROPERTIES AT ASSIGNED

                           TEMPERATURE AND PRESSURE

 CASE =                

             REACTANT                    WT FRACTION      ENERGY      TEMP
                                          (SEE NOTE)     KJ/KG-MOL      K  
 FUEL        H2                           1.0000000         0.000      0.000
 OXIDANT     H2                           1.0000000         0.000      0.000

 O/F=    1.00000  %FUEL= 50.000000  R,EQ.RATIO= 0.000000  PHI,EQ.RATIO=-1.000000

 THERMODYNAMIC PROPERTIES

 P, BAR           0.09100  0.09100  0.09100  0.09100  0.09100  0.09100  0.09100  0.09100
 T, K             1600.00  1610.00  1620.00  1630.00  1640.00  1650.00  1660.00  1670.00
 RHO, KG/CU M    1.3788-3 1.3703-3 1.3618-3 1.3534-3 1.3451-3 1.3370-3 1.3289-3 1.3209-3
 H, KJ/KG         19634.1  19798.8  19963.9  20129.5  20295.5  20462.1  20629.1  20796.6
 U, KJ/KG         13034.3  13157.7  13281.5  13405.7  13530.4  13655.6  13781.3  13907.4
 G, KJ/KG       -139819.3-140816.4-141814.6-142813.7-143813.9-144815.0-145817.2-146820.4
 S, KJ/(KG)(K)    99.6584  99.7610  99.8633  99.9652 100.0667 100.1679 100.2689 100.3695

 M, (1/n)           2.016    2.016    2.016    2.016    2.016    2.016    2.016    2.016
 (dLV/dLP)t      -1.00005 -1.00005 -1.00006 -1.00006 -1.00007 -1.00008 -1.00008 -1.00009
 (dLV/dLT)p        1.0015   1.0017   1.0019   1.0020   1.0023   1.0025   1.0027   1.0030
 Cp, KJ/(KG)(K)   16.4509  16.4925  16.5359  16.5810  16.6279  16.6769  16.7281  16.7815
 GAMMAs            1.3359   1.3349   1.3339   1.3329   1.3318   1.3307   1.3295   1.3284
 SON VEL,M/SEC     2969.3   2977.5   2985.6   2993.6   3001.6   3009.5   3017.4   3025.1

 TRANSPORT PROPERTIES (GASES ONLY)
   CONDUCTIVITY IN UNITS OF MILLIWATTS/(CM)(K)

 VISC,MILLIPOISE  0.28541  0.28667  0.28793  0.28920  0.29046  0.29172  0.29298  0.29424

  WITH EQUILIBRIUM REACTIONS

 Cp, KJ/(KG)(K)   16.4509  16.4925  16.5359  16.5810  16.6279  16.6769  16.7281  16.7815
 CONDUCTIVITY      6.7646   6.8183   6.8735   6.9303   6.9888   7.0493   7.1117   7.1762
 PRANDTL NUMBER    0.6941   0.6934   0.6927   0.6919   0.6911   0.6901   0.6891   0.6881

  WITH FROZEN REACTIONS

 Cp, KJ/(KG)(K)   16.2374  16.2582  16.2790  16.2997  16.3203  16.3409  16.3613  16.3817
 CONDUCTIVITY      6.6030   6.6400   6.6771   6.7142   6.7513   6.7884   6.8256   6.8628
 PRANDTL NUMBER    0.7018   0.7019   0.7020   0.7021   0.7021   0.7022   0.7023   0.7023

 MASS FRACTIONS

 *H               0.00009  0.00010  0.00011  0.00012  0.00014  0.00015  0.00017  0.00018
 *H2              0.99991  0.99990  0.99989  0.99988  0.99986  0.99985  0.99983  0.99982

  * THERMODYNAMIC PROPERTIES FITTED TO 20000.K

 NOTE. WEIGHT FRACTION OF FUEL IN TOTAL FUELS AND OF OXIDANT IN TOTAL OXIDANTS









               THERMODYNAMIC EQUILIBRIUM PROPERTIES AT ASSIGNED

                           TEMPERATURE AND PRESSURE

 CASE =                

             REACTANT                    WT FRACTION      ENERGY      TEMP
                                          (SEE NOTE)     KJ/KG-MOL      K  
 FUEL        H2                           1.0000000         0.000      0.000
 OXIDANT     H2                           1.0000000         0.000      0.000

 O/F=    1.00000  %FUEL= 50.000000  R,EQ.RATIO= 0.000000  PHI,EQ.RATIO=-1.000000

 THERMODYNAMIC PROPERTIES

 P, BAR           0.09100  0.09100  0.10000  0.10000  0.10000  0.10000  0.10000  0.10000
 T, K             1680.00  1690.00  1550.00  1560.00  1570.00  1580.00  1590.00  1600.00
 RHO, KG/CU M    1.3130-3 1.3052-3 1.5641-3 1.5541-3 1.5442-3 1.5344-3 1.5247-3 1.5152-3
 H, KJ/KG         20964.7  21133.4  18815.8  18978.5  19141.6  19305.1  19468.9  19633.1
 U, KJ/KG         14034.2  14161.4  12422.5  12544.0  12665.8  12787.9  12910.4  13033.4
 G, KJ/KG       -147824.6-148829.8-134246.4-135234.4-136223.5-137213.6-138204.7-139196.9
 S, KJ/(KG)(K)   100.4698 100.5699  98.7498  98.8545  98.9587  99.0625  99.1658  99.2688

 M, (1/n)           2.015    2.015    2.016    2.016    2.016    2.016    2.016    2.016
 (dLV/dLP)t      -1.00010 -1.00011 -1.00002 -1.00003 -1.00003 -1.00003 -1.00004 -1.00004
 (dLV/dLT)p        1.0033   1.0036   1.0009   1.0010   1.0011   1.0012   1.0013   1.0015
 Cp, KJ/(KG)(K)   16.8373  16.8957  16.2575  16.2919  16.3273  16.3639  16.4018  16.4410
 GAMMAs            1.3272   1.3259   1.3407   1.3398   1.3389   1.3380   1.3371   1.3361
 SON VEL,M/SEC     3032.8   3040.4   2927.7   2936.2   2944.6   2953.0   2961.3   2969.6

 TRANSPORT PROPERTIES (GASES ONLY)
   CONDUCTIVITY IN UNITS OF MILLIWATTS/(CM)(K)

 VISC,MILLIPOISE  0.29549  0.29675  0.27907  0.28034  0.28161  0.28288  0.28414  0.28541

  WITH EQUILIBRIUM REACTIONS

 Cp, KJ/(KG)(K)   16.8373  16.8957  16.2575  16.2919  16.3273  16.3639  16.4018  16.4410
 CONDUCTIVITY      7.2430   7.3122   6.5109   6.5580   6.6060   6.6552   6.7055   6.7571
 PRANDTL NUMBER    0.6869   0.6857   0.6968   0.6965   0.6960   0.6955   0.6950   0.6944

  WITH FROZEN REACTIONS

 Cp, KJ/(KG)(K)   16.4020  16.4223  16.1321  16.1533  16.1744  16.1955  16.2165  16.2374
 CONDUCTIVITY      6.9001   6.9374   6.4185   6.4553   6.4922   6.5291   6.5660   6.6030
 PRANDTL NUMBER    0.7024   0.7025   0.7014   0.7015   0.7016   0.7017   0.7018   0.7018

 MASS FRACTIONS

 *H               0.00020  0.00022  0.00005  0.00006  0.00006  0.00007  0.00008  0.00009
 *H2              0.99980  0.99978  0.99995  0.99994  0.99994  0.99993  0.99992  0.99991

  * THERMODYNAMIC PROPERTIES FITTED TO 20000.K

 NOTE. WEIGHT FRACTION OF FUEL IN TOTAL FUELS AND OF OXIDANT IN TOTAL OXIDANTS









               THERMODYNAMIC EQUILIBRIUM PROPERTIES AT ASSIGNED

                           TEMPERATURE AND PRESSURE

 CASE =                

             REACTANT                    WT FRACTION      ENERGY      TEMP
                                          (SEE NOTE)     KJ/KG-MOL      K  
 FUEL        H2                           1.0000000         0.000      0.000
 OXIDANT     H2                           1.0000000         0.000      0.000

 O/F=    1.00000  %FUEL= 50.000000  R,EQ.RATIO= 0.000000  PHI,EQ.RATIO=-1.000000

 THERMODYNAMIC PROPERTIES

 P, BAR           0.10000  0.10000  0.10000  0.10000  0.10000  0.10000  0.10000  0.10000
 T, K             1610.00  1620.00  1630.00  1640.00  1650.00  1660.00  1670.00  1680.00
 RHO, KG/CU M    1.5058-3 1.4965-3 1.4873-3 1.4782-3 1.4692-3 1.4603-3 1.4516-3 1.4429-3
 H, KJ/KG         19797.7  19962.8  20128.2  20294.1  20460.5  20627.4  20794.7  20962.6
 U, KJ/KG         13156.7  13280.4  13404.5  13529.1  13654.1  13779.6  13905.6  14032.1
 G, KJ/KG       -140190.1-141184.3-142179.6-143175.8-144173.1-145171.4-146170.7-147171.0
 S, KJ/(KG)(K)    99.3713  99.4735  99.5753  99.6768  99.7780  99.8788  99.9793 100.0795

 M, (1/n)           2.016    2.016    2.016    2.016    2.016    2.016    2.016    2.015
 (dLV/dLP)t      -1.00005 -1.00005 -1.00006 -1.00007 -1.00007 -1.00008 -1.00009 -1.00010
 (dLV/dLT)p        1.0016   1.0018   1.0020   1.0022   1.0024   1.0026   1.0028   1.0031
 Cp, KJ/(KG)(K)   16.4817  16.5240  16.5680  16.6137  16.6614  16.7111  16.7630  16.8172
 GAMMAs            1.3352   1.3342   1.3331   1.3321   1.3310   1.3299   1.3287   1.3276
 SON VEL,M/SEC     2977.7   2985.9   2993.9   3001.9   3009.9   3017.7   3025.5   3033.3

 TRANSPORT PROPERTIES (GASES ONLY)
   CONDUCTIVITY IN UNITS OF MILLIWATTS/(CM)(K)

 VISC,MILLIPOISE  0.28667  0.28793  0.28919  0.29045  0.29171  0.29297  0.29423  0.29549

  WITH EQUILIBRIUM REACTIONS

 Cp, KJ/(KG)(K)   16.4817  16.5240  16.5680  16.6137  16.6614  16.7111  16.7630  16.8172
 CONDUCTIVITY      6.8100   6.8643   6.9203   6.9778   7.0372   7.0984   7.1617   7.2271
 PRANDTL NUMBER    0.6938   0.6931   0.6924   0.6916   0.6907   0.6897   0.6887   0.6876

  WITH FROZEN REACTIONS

 Cp, KJ/(KG)(K)   16.2582  16.2790  16.2997  16.3203  16.3408  16.3613  16.3817  16.4020
 CONDUCTIVITY      6.6400   6.6770   6.7141   6.7512   6.7883   6.8255   6.8627   6.9000
 PRANDTL NUMBER    0.7019   0.7020   0.7021   0.7021   0.7022   0.7023   0.7023   0.7024

 MASS FRACTIONS

 *H               0.00010  0.00011  0.00012  0.00013  0.00014  0.00016  0.00018  0.00019
 *H2              0.99990  0.99989  0.99988  0.99987  0.99986  0.99984  0.99982  0.99981

  * THERMODYNAMIC PROPERTIES FITTED TO 20000.K

 NOTE. WEIGHT FRACTION OF FUEL IN TOTAL FUELS AND OF OXIDANT IN TOTAL OXIDANTS









               THERMODYNAMIC EQUILIBRIUM PROPERTIES AT ASSIGNED

                           TEMPERATURE AND PRESSURE

 CASE =                

             REACTANT                    WT FRACTION      ENERGY      TEMP
                                          (SEE NOTE)     KJ/KG-MOL      K  
 FUEL        H2                           1.0000000         0.000      0.000
 OXIDANT     H2                           1.0000000         0.000      0.000

 O/F=    1.00000  %FUEL= 50.000000  R,EQ.RATIO= 0.000000  PHI,EQ.RATIO=-1.000000

 THERMODYNAMIC PROPERTIES

 P, BAR           0.10000
 T, K             1690.00
 RHO, KG/CU M    1.4343-3
 H, KJ/KG         21131.1
 U, KJ/KG         14159.2
 G, KJ/KG       -148172.3
 S, KJ/(KG)(K)   100.1795

 M, (1/n)           2.015
 (dLV/dLP)t      -1.00011
 (dLV/dLT)p        1.0034
 Cp, KJ/(KG)(K)   16.8739
 GAMMAs            1.3263
 SON VEL,M/SEC     3040.9

 TRANSPORT PROPERTIES (GASES ONLY)
   CONDUCTIVITY IN UNITS OF MILLIWATTS/(CM)(K)

 VISC,MILLIPOISE  0.29675

  WITH EQUILIBRIUM REACTIONS

 Cp, KJ/(KG)(K)   16.8739
 CONDUCTIVITY      7.2948
 PRANDTL NUMBER    0.6864

  WITH FROZEN REACTIONS

 Cp, KJ/(KG)(K)   16.4222
 CONDUCTIVITY      6.9373
 PRANDTL NUMBER    0.7025

 MASS FRACTIONS

 *H               0.00021
 *H2              0.99979

  * THERMODYNAMIC PROPERTIES FITTED TO 20000.K

 NOTE. WEIGHT FRACTION OF FUEL IN TOTAL FUELS AND OF OXIDANT IN TOTAL OXIDANTS



  
