
 *******************************************************************************

         NASA-GLENN CHEMICAL EQUILIBRIUM PROGRAM CEA2, MAY 21, 2004
                   BY  BONNIE MCBRIDE AND SANFORD GORDON
      REFS: NASA RP-1311, PART I, 1994 AND NASA RP-1311, PART II, 1996

 *******************************************************************************



  prob tp ions
  p,bar= 60.0,67.0,74.0,82.5,91.0,100.0,110.0,120.0,132.0,148.0,165.0,180.0,200.0
 ,225.0,250.0
  t,k= 1250,1260,1270,1280,1290,1300,1310,1320,1330,1340,1350,1360,1370,1380,1390
  
  
  reac
  fuel H2                wt%=100.0000
  oxid H2                wt%=100.0000
  
  output short
  
  output massf
  
  output siunits
  
  output transport
  
 end





               THERMODYNAMIC EQUILIBRIUM PROPERTIES AT ASSIGNED

                           TEMPERATURE AND PRESSURE

 CASE =                

             REACTANT                    WT FRACTION      ENERGY      TEMP
                                          (SEE NOTE)     KJ/KG-MOL      K  
 FUEL        H2                           1.0000000         0.000      0.000
 OXIDANT     H2                           1.0000000         0.000      0.000

 O/F=    1.00000  %FUEL= 50.000000  R,EQ.RATIO= 0.000000  PHI,EQ.RATIO=-1.000000

 THERMODYNAMIC PROPERTIES

 P, BAR            60.000   60.000   60.000   60.000   60.000   60.000   60.000   60.000
 T, K             1250.00  1260.00  1270.00  1280.00  1290.00  1300.00  1310.00  1320.00
 RHO, KG/CU M    1.1638 0 1.1545 0 1.1455 0 1.1365 0 1.1277 0 1.1190 0 1.1105 0 1.1021 0
 H, KJ/KG         14062.8  14217.7  14372.8  14528.1  14683.6  14839.4  14995.4  15151.6
 U, KJ/KG         8907.16  9020.79  9134.65  9248.73  9363.02  9477.54  9592.28  9707.24
 G, KJ/KG        -72138.0 -72828.1 -73519.5 -74212.1 -74906.0 -75601.1 -76297.4 -76994.9
 S, KJ/(KG)(K)    68.9606  69.0839  69.2065  69.3283  69.4493  69.5696  69.6891  69.8079

 M, (1/n)           2.016    2.016    2.016    2.016    2.016    2.016    2.016    2.016
 (dLV/dLP)t      -1.00000 -1.00000 -1.00000 -1.00000 -1.00000 -1.00000 -1.00000 -1.00000
 (dLV/dLT)p        1.0000   1.0000   1.0000   1.0000   1.0000   1.0000   1.0000   1.0000
 Cp, KJ/(KG)(K)   15.4775  15.4993  15.5212  15.5432  15.5652  15.5872  15.6093  15.6314
 GAMMAs            1.3633   1.3626   1.3619   1.3612   1.3605   1.3598   1.3591   1.3584
 SON VEL,M/SEC     2651.2   2661.1   2670.9   2680.7   2690.5   2700.2   2709.9   2719.5

 TRANSPORT PROPERTIES (GASES ONLY)
   CONDUCTIVITY IN UNITS OF MILLIWATTS/(CM)(K)

 VISC,MILLIPOISE  0.24020  0.24153  0.24286  0.24418  0.24551  0.24682  0.24814  0.24945

  WITH EQUILIBRIUM REACTIONS

 Cp, KJ/(KG)(K)   15.4775  15.4993  15.5212  15.5432  15.5652  15.5872  15.6093  15.6314
 CONDUCTIVITY      5.3262   5.3621   5.3981   5.4341   5.4702   5.5063   5.5425   5.5787
 PRANDTL NUMBER    0.6980   0.6982   0.6983   0.6984   0.6986   0.6987   0.6988   0.6990

  WITH FROZEN REACTIONS

 Cp, KJ/(KG)(K)   15.4774  15.4992  15.5211  15.5430  15.5650  15.5870  15.6090  15.6310
 CONDUCTIVITY      5.3261   5.3620   5.3980   5.4340   5.4701   5.5062   5.5423   5.5785
 PRANDTL NUMBER    0.6980   0.6982   0.6983   0.6984   0.6986   0.6987   0.6988   0.6990

 MASS FRACTIONS

 *H2              1.00000  1.00000  1.00000  1.00000  1.00000  1.00000  1.00000  1.00000

  * THERMODYNAMIC PROPERTIES FITTED TO 20000.K

 NOTE. WEIGHT FRACTION OF FUEL IN TOTAL FUELS AND OF OXIDANT IN TOTAL OXIDANTS









               THERMODYNAMIC EQUILIBRIUM PROPERTIES AT ASSIGNED

                           TEMPERATURE AND PRESSURE

 CASE =                

             REACTANT                    WT FRACTION      ENERGY      TEMP
                                          (SEE NOTE)     KJ/KG-MOL      K  
 FUEL        H2                           1.0000000         0.000      0.000
 OXIDANT     H2                           1.0000000         0.000      0.000

 O/F=    1.00000  %FUEL= 50.000000  R,EQ.RATIO= 0.000000  PHI,EQ.RATIO=-1.000000

 THERMODYNAMIC PROPERTIES

 P, BAR            60.000   60.000   60.000   60.000   60.000   60.000   60.000   67.000
 T, K             1330.00  1340.00  1350.00  1360.00  1370.00  1380.00  1390.00  1250.00
 RHO, KG/CU M    1.0938 0 1.0856 0 1.0776 0 1.0697 0 1.0618 0 1.0541 0 1.0466 0 1.2996 0
 H, KJ/KG         15308.0  15464.6  15621.5  15778.6  15935.9  16093.4  16251.2  14062.8
 U, KJ/KG         9822.42  9937.82  10053.4  10169.3  10285.3  10401.6  10518.1  8907.15
 G, KJ/KG        -77693.5 -78393.4 -79094.4 -79796.6 -80499.9 -81204.4 -81910.0 -71568.9
 S, KJ/(KG)(K)    69.9260  70.0433  70.1599  70.2759  70.3911  70.5057  70.6196  68.5054

 M, (1/n)           2.016    2.016    2.016    2.016    2.016    2.016    2.016    2.016
 (dLV/dLP)t      -1.00000 -1.00000 -1.00000 -1.00000 -1.00000 -1.00000 -1.00000 -1.00000
 (dLV/dLT)p        1.0000   1.0000   1.0000   1.0000   1.0000   1.0000   1.0000   1.0000
 Cp, KJ/(KG)(K)   15.6535  15.6756  15.6977  15.7199  15.7420  15.7641  15.7862  15.4775
 GAMMAs            1.3578   1.3571   1.3564   1.3557   1.3550   1.3544   1.3537   1.3633
 SON VEL,M/SEC     2729.1   2738.7   2748.2   2757.6   2767.1   2776.5   2785.8   2651.2

 TRANSPORT PROPERTIES (GASES ONLY)
   CONDUCTIVITY IN UNITS OF MILLIWATTS/(CM)(K)

 VISC,MILLIPOISE  0.25076  0.25207  0.25338  0.25468  0.25598  0.25728  0.25857  0.24020

  WITH EQUILIBRIUM REACTIONS

 Cp, KJ/(KG)(K)   15.6535  15.6756  15.6977  15.7199  15.7420  15.7641  15.7862  15.4775
 CONDUCTIVITY      5.6149   5.6512   5.6875   5.7239   5.7602   5.7966   5.8331   5.3261
 PRANDTL NUMBER    0.6991   0.6992   0.6993   0.6994   0.6996   0.6997   0.6998   0.6980

  WITH FROZEN REACTIONS

 Cp, KJ/(KG)(K)   15.6531  15.6752  15.6972  15.7193  15.7413  15.7634  15.7854  15.4774
 CONDUCTIVITY      5.6147   5.6509   5.6872   5.7235   5.7598   5.7961   5.8325   5.3260
 PRANDTL NUMBER    0.6991   0.6992   0.6993   0.6995   0.6996   0.6997   0.6998   0.6980

 MASS FRACTIONS

 *H2              1.00000  1.00000  1.00000  1.00000  1.00000  1.00000  1.00000  1.00000

  * THERMODYNAMIC PROPERTIES FITTED TO 20000.K

 NOTE. WEIGHT FRACTION OF FUEL IN TOTAL FUELS AND OF OXIDANT IN TOTAL OXIDANTS









               THERMODYNAMIC EQUILIBRIUM PROPERTIES AT ASSIGNED

                           TEMPERATURE AND PRESSURE

 CASE =                

             REACTANT                    WT FRACTION      ENERGY      TEMP
                                          (SEE NOTE)     KJ/KG-MOL      K  
 FUEL        H2                           1.0000000         0.000      0.000
 OXIDANT     H2                           1.0000000         0.000      0.000

 O/F=    1.00000  %FUEL= 50.000000  R,EQ.RATIO= 0.000000  PHI,EQ.RATIO=-1.000000

 THERMODYNAMIC PROPERTIES

 P, BAR            67.000   67.000   67.000   67.000   67.000   67.000   67.000   67.000
 T, K             1260.00  1270.00  1280.00  1290.00  1300.00  1310.00  1320.00  1330.00
 RHO, KG/CU M    1.2892 0 1.2791 0 1.2691 0 1.2593 0 1.2496 0 1.2400 0 1.2306 0 1.2214 0
 H, KJ/KG         14217.6  14372.7  14528.1  14683.6  14839.4  14995.4  15151.6  15308.0
 U, KJ/KG         9020.79  9134.65  9248.73  9363.02  9477.54  9592.28  9707.24  9822.42
 G, KJ/KG        -72254.6 -72941.4 -73629.5 -74318.9 -75009.4 -75701.2 -76394.1 -77088.2
 S, KJ/(KG)(K)    68.6287  68.7513  68.8731  68.9942  69.1145  69.2340  69.3528  69.4708

 M, (1/n)           2.016    2.016    2.016    2.016    2.016    2.016    2.016    2.016
 (dLV/dLP)t      -1.00000 -1.00000 -1.00000 -1.00000 -1.00000 -1.00000 -1.00000 -1.00000
 (dLV/dLT)p        1.0000   1.0000   1.0000   1.0000   1.0000   1.0000   1.0000   1.0000
 Cp, KJ/(KG)(K)   15.4993  15.5212  15.5432  15.5652  15.5872  15.6093  15.6314  15.6535
 GAMMAs            1.3626   1.3619   1.3612   1.3605   1.3598   1.3591   1.3584   1.3578
 SON VEL,M/SEC     2661.1   2670.9   2680.7   2690.5   2700.2   2709.9   2719.5   2729.1

 TRANSPORT PROPERTIES (GASES ONLY)
   CONDUCTIVITY IN UNITS OF MILLIWATTS/(CM)(K)

 VISC,MILLIPOISE  0.24153  0.24286  0.24418  0.24551  0.24682  0.24814  0.24945  0.25076

  WITH EQUILIBRIUM REACTIONS

 Cp, KJ/(KG)(K)   15.4993  15.5212  15.5432  15.5652  15.5872  15.6093  15.6314  15.6535
 CONDUCTIVITY      5.3620   5.3980   5.4341   5.4702   5.5063   5.5425   5.5787   5.6149
 PRANDTL NUMBER    0.6982   0.6983   0.6984   0.6986   0.6987   0.6988   0.6990   0.6991

  WITH FROZEN REACTIONS

 Cp, KJ/(KG)(K)   15.4992  15.5211  15.5430  15.5650  15.5870  15.6090  15.6310  15.6531
 CONDUCTIVITY      5.3619   5.3979   5.4340   5.4701   5.5062   5.5423   5.5785   5.6147
 PRANDTL NUMBER    0.6982   0.6983   0.6984   0.6986   0.6987   0.6988   0.6990   0.6991

 MASS FRACTIONS

 *H2              1.00000  1.00000  1.00000  1.00000  1.00000  1.00000  1.00000  1.00000

  * THERMODYNAMIC PROPERTIES FITTED TO 20000.K

 NOTE. WEIGHT FRACTION OF FUEL IN TOTAL FUELS AND OF OXIDANT IN TOTAL OXIDANTS









               THERMODYNAMIC EQUILIBRIUM PROPERTIES AT ASSIGNED

                           TEMPERATURE AND PRESSURE

 CASE =                

             REACTANT                    WT FRACTION      ENERGY      TEMP
                                          (SEE NOTE)     KJ/KG-MOL      K  
 FUEL        H2                           1.0000000         0.000      0.000
 OXIDANT     H2                           1.0000000         0.000      0.000

 O/F=    1.00000  %FUEL= 50.000000  R,EQ.RATIO= 0.000000  PHI,EQ.RATIO=-1.000000

 THERMODYNAMIC PROPERTIES

 P, BAR            67.000   67.000   67.000   67.000   67.000   67.000   74.000   74.000
 T, K             1340.00  1350.00  1360.00  1370.00  1380.00  1390.00  1250.00  1260.00
 RHO, KG/CU M    1.2123 0 1.2033 0 1.1944 0 1.1857 0 1.1771 0 1.1687 0 1.4353 0 1.4239 0
 H, KJ/KG         15464.6  15621.5  15778.6  15935.9  16093.4  16251.2  14062.8  14217.6
 U, KJ/KG         9937.82  10053.4  10169.3  10285.3  10401.6  10518.1  8907.15  9020.79
 G, KJ/KG        -77783.5 -78480.0 -79177.6 -79876.4 -80576.3 -81277.4 -71056.6 -71738.1
 S, KJ/(KG)(K)    69.5882  69.7048  69.8207  69.9360  70.0505  70.1644  68.0955  68.2189

 M, (1/n)           2.016    2.016    2.016    2.016    2.016    2.016    2.016    2.016
 (dLV/dLP)t      -1.00000 -1.00000 -1.00000 -1.00000 -1.00000 -1.00000 -1.00000 -1.00000
 (dLV/dLT)p        1.0000   1.0000   1.0000   1.0000   1.0000   1.0000   1.0000   1.0000
 Cp, KJ/(KG)(K)   15.6756  15.6977  15.7198  15.7419  15.7641  15.7862  15.4775  15.4993
 GAMMAs            1.3571   1.3564   1.3557   1.3550   1.3544   1.3537   1.3633   1.3626
 SON VEL,M/SEC     2738.7   2748.2   2757.6   2767.1   2776.5   2785.8   2651.2   2661.1

 TRANSPORT PROPERTIES (GASES ONLY)
   CONDUCTIVITY IN UNITS OF MILLIWATTS/(CM)(K)

 VISC,MILLIPOISE  0.25207  0.25338  0.25468  0.25598  0.25728  0.25857  0.24020  0.24153

  WITH EQUILIBRIUM REACTIONS

 Cp, KJ/(KG)(K)   15.6756  15.6977  15.7198  15.7419  15.7641  15.7862  15.4775  15.4993
 CONDUCTIVITY      5.6512   5.6875   5.7238   5.7602   5.7966   5.8331   5.3261   5.3620
 PRANDTL NUMBER    0.6992   0.6993   0.6994   0.6996   0.6997   0.6998   0.6980   0.6982

  WITH FROZEN REACTIONS

 Cp, KJ/(KG)(K)   15.6752  15.6972  15.7193  15.7413  15.7634  15.7854  15.4774  15.4992
 CONDUCTIVITY      5.6509   5.6872   5.7235   5.7598   5.7961   5.8325   5.3260   5.3619
 PRANDTL NUMBER    0.6992   0.6993   0.6995   0.6996   0.6997   0.6998   0.6980   0.6982

 MASS FRACTIONS

 *H2              1.00000  1.00000  1.00000  1.00000  1.00000  1.00000  1.00000  1.00000

  * THERMODYNAMIC PROPERTIES FITTED TO 20000.K

 NOTE. WEIGHT FRACTION OF FUEL IN TOTAL FUELS AND OF OXIDANT IN TOTAL OXIDANTS









               THERMODYNAMIC EQUILIBRIUM PROPERTIES AT ASSIGNED

                           TEMPERATURE AND PRESSURE

 CASE =                

             REACTANT                    WT FRACTION      ENERGY      TEMP
                                          (SEE NOTE)     KJ/KG-MOL      K  
 FUEL        H2                           1.0000000         0.000      0.000
 OXIDANT     H2                           1.0000000         0.000      0.000

 O/F=    1.00000  %FUEL= 50.000000  R,EQ.RATIO= 0.000000  PHI,EQ.RATIO=-1.000000

 THERMODYNAMIC PROPERTIES

 P, BAR            74.000   74.000   74.000   74.000   74.000   74.000   74.000   74.000
 T, K             1270.00  1280.00  1290.00  1300.00  1310.00  1320.00  1330.00  1340.00
 RHO, KG/CU M    1.4127 0 1.4017 0 1.3908 0 1.3801 0 1.3696 0 1.3592 0 1.3490 0 1.3389 0
 H, KJ/KG         14372.7  14528.1  14683.6  14839.4  14995.4  15151.6  15308.0  15464.6
 U, KJ/KG         9134.65  9248.73  9363.02  9477.54  9592.28  9707.24  9822.41  9937.81
 G, KJ/KG        -72420.9 -73104.9 -73790.2 -74476.6 -75164.2 -75853.1 -76543.1 -77234.3
 S, KJ/(KG)(K)    68.3415  68.4633  68.5843  68.7046  68.8241  68.9429  69.0610  69.1783

 M, (1/n)           2.016    2.016    2.016    2.016    2.016    2.016    2.016    2.016
 (dLV/dLP)t      -1.00000 -1.00000 -1.00000 -1.00000 -1.00000 -1.00000 -1.00000 -1.00000
 (dLV/dLT)p        1.0000   1.0000   1.0000   1.0000   1.0000   1.0000   1.0000   1.0000
 Cp, KJ/(KG)(K)   15.5212  15.5432  15.5652  15.5872  15.6093  15.6313  15.6535  15.6756
 GAMMAs            1.3619   1.3612   1.3605   1.3598   1.3591   1.3584   1.3578   1.3571
 SON VEL,M/SEC     2670.9   2680.7   2690.5   2700.2   2709.9   2719.5   2729.1   2738.7

 TRANSPORT PROPERTIES (GASES ONLY)
   CONDUCTIVITY IN UNITS OF MILLIWATTS/(CM)(K)

 VISC,MILLIPOISE  0.24286  0.24418  0.24551  0.24682  0.24814  0.24945  0.25076  0.25207

  WITH EQUILIBRIUM REACTIONS

 Cp, KJ/(KG)(K)   15.5212  15.5432  15.5652  15.5872  15.6093  15.6313  15.6535  15.6756
 CONDUCTIVITY      5.3980   5.4341   5.4702   5.5063   5.5425   5.5787   5.6149   5.6512
 PRANDTL NUMBER    0.6983   0.6984   0.6986   0.6987   0.6988   0.6990   0.6991   0.6992

  WITH FROZEN REACTIONS

 Cp, KJ/(KG)(K)   15.5211  15.5430  15.5650  15.5870  15.6090  15.6310  15.6531  15.6752
 CONDUCTIVITY      5.3979   5.4340   5.4701   5.5062   5.5423   5.5785   5.6147   5.6509
 PRANDTL NUMBER    0.6983   0.6984   0.6986   0.6987   0.6988   0.6990   0.6991   0.6992

 MASS FRACTIONS

 *H2              1.00000  1.00000  1.00000  1.00000  1.00000  1.00000  1.00000  1.00000

  * THERMODYNAMIC PROPERTIES FITTED TO 20000.K

 NOTE. WEIGHT FRACTION OF FUEL IN TOTAL FUELS AND OF OXIDANT IN TOTAL OXIDANTS









               THERMODYNAMIC EQUILIBRIUM PROPERTIES AT ASSIGNED

                           TEMPERATURE AND PRESSURE

 CASE =                

             REACTANT                    WT FRACTION      ENERGY      TEMP
                                          (SEE NOTE)     KJ/KG-MOL      K  
 FUEL        H2                           1.0000000         0.000      0.000
 OXIDANT     H2                           1.0000000         0.000      0.000

 O/F=    1.00000  %FUEL= 50.000000  R,EQ.RATIO= 0.000000  PHI,EQ.RATIO=-1.000000

 THERMODYNAMIC PROPERTIES

 P, BAR            74.000   74.000   74.000   74.000   74.000   82.500   82.500   82.500
 T, K             1350.00  1360.00  1370.00  1380.00  1390.00  1250.00  1260.00  1270.00
 RHO, KG/CU M    1.3290 0 1.3192 0 1.3096 0 1.3001 0 1.2908 0 1.6002 0 1.5875 0 1.5750 0
 H, KJ/KG         15621.5  15778.6  15935.9  16093.4  16251.2  14062.8  14217.6  14372.7
 U, KJ/KG         10053.4  10169.3  10285.3  10401.6  10518.1  8907.15  9020.79  9134.65
 G, KJ/KG        -77926.7 -78620.2 -79314.9 -80010.7 -80707.7 -70496.0 -71173.0 -71851.3
 S, KJ/(KG)(K)    69.2949  69.4109  69.5261  69.6407  69.7546  67.6470  67.7704  67.8930

 M, (1/n)           2.016    2.016    2.016    2.016    2.016    2.016    2.016    2.016
 (dLV/dLP)t      -1.00000 -1.00000 -1.00000 -1.00000 -1.00000 -1.00000 -1.00000 -1.00000
 (dLV/dLT)p        1.0000   1.0000   1.0000   1.0000   1.0000   1.0000   1.0000   1.0000
 Cp, KJ/(KG)(K)   15.6977  15.7198  15.7419  15.7640  15.7861  15.4775  15.4993  15.5212
 GAMMAs            1.3564   1.3557   1.3550   1.3544   1.3537   1.3633   1.3626   1.3619
 SON VEL,M/SEC     2748.2   2757.6   2767.1   2776.5   2785.8   2651.2   2661.1   2670.9

 TRANSPORT PROPERTIES (GASES ONLY)
   CONDUCTIVITY IN UNITS OF MILLIWATTS/(CM)(K)

 VISC,MILLIPOISE  0.25338  0.25468  0.25598  0.25728  0.25857  0.24020  0.24153  0.24286

  WITH EQUILIBRIUM REACTIONS

 Cp, KJ/(KG)(K)   15.6977  15.7198  15.7419  15.7640  15.7861  15.4775  15.4993  15.5212
 CONDUCTIVITY      5.6875   5.7238   5.7602   5.7966   5.8330   5.3261   5.3620   5.3980
 PRANDTL NUMBER    0.6993   0.6994   0.6996   0.6997   0.6998   0.6980   0.6982   0.6983

  WITH FROZEN REACTIONS

 Cp, KJ/(KG)(K)   15.6972  15.7193  15.7413  15.7634  15.7854  15.4774  15.4992  15.5211
 CONDUCTIVITY      5.6872   5.7235   5.7598   5.7961   5.8325   5.3260   5.3619   5.3979
 PRANDTL NUMBER    0.6993   0.6995   0.6996   0.6997   0.6998   0.6980   0.6982   0.6983

 MASS FRACTIONS

 *H2              1.00000  1.00000  1.00000  1.00000  1.00000  1.00000  1.00000  1.00000

  * THERMODYNAMIC PROPERTIES FITTED TO 20000.K

 NOTE. WEIGHT FRACTION OF FUEL IN TOTAL FUELS AND OF OXIDANT IN TOTAL OXIDANTS









               THERMODYNAMIC EQUILIBRIUM PROPERTIES AT ASSIGNED

                           TEMPERATURE AND PRESSURE

 CASE =                

             REACTANT                    WT FRACTION      ENERGY      TEMP
                                          (SEE NOTE)     KJ/KG-MOL      K  
 FUEL        H2                           1.0000000         0.000      0.000
 OXIDANT     H2                           1.0000000         0.000      0.000

 O/F=    1.00000  %FUEL= 50.000000  R,EQ.RATIO= 0.000000  PHI,EQ.RATIO=-1.000000

 THERMODYNAMIC PROPERTIES

 P, BAR            82.500   82.500   82.500   82.500   82.500   82.500   82.500   82.500
 T, K             1280.00  1290.00  1300.00  1310.00  1320.00  1330.00  1340.00  1350.00
 RHO, KG/CU M    1.5627 0 1.5506 0 1.5387 0 1.5269 0 1.5153 0 1.5039 0 1.4927 0 1.4817 0
 H, KJ/KG         14528.1  14683.6  14839.4  14995.4  15151.6  15308.0  15464.6  15621.5
 U, KJ/KG         9248.73  9363.02  9477.54  9592.28  9707.23  9822.41  9937.81  10053.4
 G, KJ/KG        -72530.9 -73211.6 -73893.6 -74576.7 -75261.1 -75946.6 -76633.3 -77321.2
 S, KJ/(KG)(K)    68.0148  68.1358  68.2561  68.3756  68.4944  68.6125  68.7298  68.8465

 M, (1/n)           2.016    2.016    2.016    2.016    2.016    2.016    2.016    2.016
 (dLV/dLP)t      -1.00000 -1.00000 -1.00000 -1.00000 -1.00000 -1.00000 -1.00000 -1.00000
 (dLV/dLT)p        1.0000   1.0000   1.0000   1.0000   1.0000   1.0000   1.0000   1.0000
 Cp, KJ/(KG)(K)   15.5432  15.5652  15.5872  15.6093  15.6313  15.6534  15.6755  15.6977
 GAMMAs            1.3612   1.3605   1.3598   1.3591   1.3584   1.3578   1.3571   1.3564
 SON VEL,M/SEC     2680.7   2690.5   2700.2   2709.9   2719.5   2729.1   2738.7   2748.2

 TRANSPORT PROPERTIES (GASES ONLY)
   CONDUCTIVITY IN UNITS OF MILLIWATTS/(CM)(K)

 VISC,MILLIPOISE  0.24418  0.24551  0.24682  0.24814  0.24945  0.25076  0.25207  0.25338

  WITH EQUILIBRIUM REACTIONS

 Cp, KJ/(KG)(K)   15.5432  15.5652  15.5872  15.6093  15.6313  15.6534  15.6755  15.6977
 CONDUCTIVITY      5.4341   5.4702   5.5063   5.5425   5.5787   5.6149   5.6512   5.6875
 PRANDTL NUMBER    0.6984   0.6986   0.6987   0.6988   0.6990   0.6991   0.6992   0.6993

  WITH FROZEN REACTIONS

 Cp, KJ/(KG)(K)   15.5430  15.5650  15.5870  15.6090  15.6310  15.6531  15.6752  15.6972
 CONDUCTIVITY      5.4340   5.4701   5.5062   5.5423   5.5785   5.6147   5.6509   5.6872
 PRANDTL NUMBER    0.6984   0.6986   0.6987   0.6988   0.6990   0.6991   0.6992   0.6993

 MASS FRACTIONS

 *H2              1.00000  1.00000  1.00000  1.00000  1.00000  1.00000  1.00000  1.00000

  * THERMODYNAMIC PROPERTIES FITTED TO 20000.K

 NOTE. WEIGHT FRACTION OF FUEL IN TOTAL FUELS AND OF OXIDANT IN TOTAL OXIDANTS









               THERMODYNAMIC EQUILIBRIUM PROPERTIES AT ASSIGNED

                           TEMPERATURE AND PRESSURE

 CASE =                

             REACTANT                    WT FRACTION      ENERGY      TEMP
                                          (SEE NOTE)     KJ/KG-MOL      K  
 FUEL        H2                           1.0000000         0.000      0.000
 OXIDANT     H2                           1.0000000         0.000      0.000

 O/F=    1.00000  %FUEL= 50.000000  R,EQ.RATIO= 0.000000  PHI,EQ.RATIO=-1.000000

 THERMODYNAMIC PROPERTIES

 P, BAR            82.500   82.500   82.500   82.500   91.000   91.000   91.000   91.000
 T, K             1360.00  1370.00  1380.00  1390.00  1250.00  1260.00  1270.00  1280.00
 RHO, KG/CU M    1.4708 0 1.4600 0 1.4495 0 1.4390 0 1.7651 0 1.7511 0 1.7373 0 1.7237 0
 H, KJ/KG         15778.6  15935.9  16093.4  16251.2  14062.8  14217.6  14372.7  14528.1
 U, KJ/KG         10169.3  10285.3  10401.6  10518.1  8907.15  9020.79  9134.65  9248.73
 G, KJ/KG        -78010.3 -78700.5 -79391.8 -80084.3 -69990.4 -70663.4 -71337.7 -72013.2
 S, KJ/(KG)(K)    68.9624  69.0776  69.1922  69.3061  67.2426  67.3659  67.4885  67.6103

 M, (1/n)           2.016    2.016    2.016    2.016    2.016    2.016    2.016    2.016
 (dLV/dLP)t      -1.00000 -1.00000 -1.00000 -1.00000 -1.00000 -1.00000 -1.00000 -1.00000
 (dLV/dLT)p        1.0000   1.0000   1.0000   1.0000   1.0000   1.0000   1.0000   1.0000
 Cp, KJ/(KG)(K)   15.7198  15.7419  15.7640  15.7861  15.4775  15.4993  15.5212  15.5432
 GAMMAs            1.3557   1.3550   1.3544   1.3537   1.3633   1.3626   1.3619   1.3612
 SON VEL,M/SEC     2757.6   2767.1   2776.5   2785.8   2651.2   2661.1   2670.9   2680.7

 TRANSPORT PROPERTIES (GASES ONLY)
   CONDUCTIVITY IN UNITS OF MILLIWATTS/(CM)(K)

 VISC,MILLIPOISE  0.25468  0.25598  0.25728  0.25857  0.24020  0.24153  0.24286  0.24418

  WITH EQUILIBRIUM REACTIONS

 Cp, KJ/(KG)(K)   15.7198  15.7419  15.7640  15.7861  15.4775  15.4993  15.5212  15.5432
 CONDUCTIVITY      5.7238   5.7602   5.7966   5.8330   5.3261   5.3620   5.3980   5.4341
 PRANDTL NUMBER    0.6994   0.6996   0.6997   0.6998   0.6980   0.6982   0.6983   0.6984

  WITH FROZEN REACTIONS

 Cp, KJ/(KG)(K)   15.7193  15.7413  15.7634  15.7854  15.4774  15.4992  15.5211  15.5430
 CONDUCTIVITY      5.7235   5.7598   5.7961   5.8325   5.3260   5.3619   5.3979   5.4340
 PRANDTL NUMBER    0.6995   0.6996   0.6997   0.6998   0.6980   0.6982   0.6983   0.6984

 MASS FRACTIONS

 *H2              1.00000  1.00000  1.00000  1.00000  1.00000  1.00000  1.00000  1.00000

  * THERMODYNAMIC PROPERTIES FITTED TO 20000.K

 NOTE. WEIGHT FRACTION OF FUEL IN TOTAL FUELS AND OF OXIDANT IN TOTAL OXIDANTS









               THERMODYNAMIC EQUILIBRIUM PROPERTIES AT ASSIGNED

                           TEMPERATURE AND PRESSURE

 CASE =                

             REACTANT                    WT FRACTION      ENERGY      TEMP
                                          (SEE NOTE)     KJ/KG-MOL      K  
 FUEL        H2                           1.0000000         0.000      0.000
 OXIDANT     H2                           1.0000000         0.000      0.000

 O/F=    1.00000  %FUEL= 50.000000  R,EQ.RATIO= 0.000000  PHI,EQ.RATIO=-1.000000

 THERMODYNAMIC PROPERTIES

 P, BAR            91.000   91.000   91.000   91.000   91.000   91.000   91.000   91.000
 T, K             1290.00  1300.00  1310.00  1320.00  1330.00  1340.00  1350.00  1360.00
 RHO, KG/CU M    1.7103 0 1.6972 0 1.6842 0 1.6715 0 1.6589 0 1.6465 0 1.6343 0 1.6223 0
 H, KJ/KG         14683.6  14839.4  14995.4  15151.6  15308.0  15464.6  15621.5  15778.6
 U, KJ/KG         9363.02  9477.54  9592.28  9707.23  9822.41  9937.81  10053.4  10169.3
 G, KJ/KG        -72689.9 -73367.8 -74046.9 -74727.2 -75408.7 -76091.4 -76775.2 -77460.2
 S, KJ/(KG)(K)    67.7314  67.8517  67.9712  68.0900  68.2080  68.3254  68.4420  68.5579

 M, (1/n)           2.016    2.016    2.016    2.016    2.016    2.016    2.016    2.016
 (dLV/dLP)t      -1.00000 -1.00000 -1.00000 -1.00000 -1.00000 -1.00000 -1.00000 -1.00000
 (dLV/dLT)p        1.0000   1.0000   1.0000   1.0000   1.0000   1.0000   1.0000   1.0000
 Cp, KJ/(KG)(K)   15.5652  15.5872  15.6092  15.6313  15.6534  15.6755  15.6976  15.7197
 GAMMAs            1.3605   1.3598   1.3591   1.3584   1.3578   1.3571   1.3564   1.3557
 SON VEL,M/SEC     2690.5   2700.2   2709.9   2719.5   2729.1   2738.7   2748.2   2757.6

 TRANSPORT PROPERTIES (GASES ONLY)
   CONDUCTIVITY IN UNITS OF MILLIWATTS/(CM)(K)

 VISC,MILLIPOISE  0.24551  0.24682  0.24814  0.24945  0.25076  0.25207  0.25338  0.25468

  WITH EQUILIBRIUM REACTIONS

 Cp, KJ/(KG)(K)   15.5652  15.5872  15.6092  15.6313  15.6534  15.6755  15.6976  15.7197
 CONDUCTIVITY      5.4702   5.5063   5.5425   5.5787   5.6149   5.6512   5.6875   5.7238
 PRANDTL NUMBER    0.6986   0.6987   0.6988   0.6990   0.6991   0.6992   0.6993   0.6994

  WITH FROZEN REACTIONS

 Cp, KJ/(KG)(K)   15.5650  15.5870  15.6090  15.6310  15.6531  15.6752  15.6972  15.7193
 CONDUCTIVITY      5.4701   5.5062   5.5423   5.5785   5.6147   5.6509   5.6872   5.7235
 PRANDTL NUMBER    0.6986   0.6987   0.6988   0.6990   0.6991   0.6992   0.6993   0.6995

 MASS FRACTIONS

 *H2              1.00000  1.00000  1.00000  1.00000  1.00000  1.00000  1.00000  1.00000

  * THERMODYNAMIC PROPERTIES FITTED TO 20000.K

 NOTE. WEIGHT FRACTION OF FUEL IN TOTAL FUELS AND OF OXIDANT IN TOTAL OXIDANTS









               THERMODYNAMIC EQUILIBRIUM PROPERTIES AT ASSIGNED

                           TEMPERATURE AND PRESSURE

 CASE =                

             REACTANT                    WT FRACTION      ENERGY      TEMP
                                          (SEE NOTE)     KJ/KG-MOL      K  
 FUEL        H2                           1.0000000         0.000      0.000
 OXIDANT     H2                           1.0000000         0.000      0.000

 O/F=    1.00000  %FUEL= 50.000000  R,EQ.RATIO= 0.000000  PHI,EQ.RATIO=-1.000000

 THERMODYNAMIC PROPERTIES

 P, BAR            91.000   91.000   91.000   100.00   100.00   100.00   100.00   100.00
 T, K             1370.00  1380.00  1390.00  1250.00  1260.00  1270.00  1280.00  1290.00
 RHO, KG/CU M    1.6105 0 1.5988 0 1.5873 0 1.9396 0 1.9242 0 1.9091 0 1.8942 0 1.8795 0
 H, KJ/KG         15935.9  16093.4  16251.2  14062.8  14217.6  14372.7  14528.1  14683.6
 U, KJ/KG         10285.3  10401.6  10518.1  8907.15  9020.79  9134.65  9248.72  9363.02
 G, KJ/KG        -78146.4 -78833.7 -79522.1 -69504.2 -70173.3 -70843.7 -71515.3 -72188.1
 S, KJ/(KG)(K)    68.6732  68.7877  68.9016  66.8536  66.9770  67.0995  67.2214  67.3424

 M, (1/n)           2.016    2.016    2.016    2.016    2.016    2.016    2.016    2.016
 (dLV/dLP)t      -1.00000 -1.00000 -1.00000 -1.00000 -1.00000 -1.00000 -1.00000 -1.00000
 (dLV/dLT)p        1.0000   1.0000   1.0000   1.0000   1.0000   1.0000   1.0000   1.0000
 Cp, KJ/(KG)(K)   15.7419  15.7640  15.7860  15.4774  15.4993  15.5212  15.5431  15.5651
 GAMMAs            1.3550   1.3544   1.3537   1.3633   1.3626   1.3619   1.3612   1.3605
 SON VEL,M/SEC     2767.1   2776.5   2785.8   2651.2   2661.1   2670.9   2680.7   2690.5

 TRANSPORT PROPERTIES (GASES ONLY)
   CONDUCTIVITY IN UNITS OF MILLIWATTS/(CM)(K)

 VISC,MILLIPOISE  0.25598  0.25728  0.25857  0.24020  0.24153  0.24286  0.24418  0.24551

  WITH EQUILIBRIUM REACTIONS

 Cp, KJ/(KG)(K)   15.7419  15.7640  15.7860  15.4774  15.4993  15.5212  15.5431  15.5651
 CONDUCTIVITY      5.7602   5.7965   5.8330   5.3261   5.3620   5.3980   5.4341   5.4702
 PRANDTL NUMBER    0.6996   0.6997   0.6998   0.6980   0.6982   0.6983   0.6984   0.6986

  WITH FROZEN REACTIONS

 Cp, KJ/(KG)(K)   15.7413  15.7634  15.7854  15.4774  15.4992  15.5211  15.5430  15.5650
 CONDUCTIVITY      5.7598   5.7961   5.8325   5.3260   5.3619   5.3979   5.4340   5.4701
 PRANDTL NUMBER    0.6996   0.6997   0.6998   0.6980   0.6982   0.6983   0.6984   0.6986

 MASS FRACTIONS

 *H2              1.00000  1.00000  1.00000  1.00000  1.00000  1.00000  1.00000  1.00000

  * THERMODYNAMIC PROPERTIES FITTED TO 20000.K

 NOTE. WEIGHT FRACTION OF FUEL IN TOTAL FUELS AND OF OXIDANT IN TOTAL OXIDANTS









               THERMODYNAMIC EQUILIBRIUM PROPERTIES AT ASSIGNED

                           TEMPERATURE AND PRESSURE

 CASE =                

             REACTANT                    WT FRACTION      ENERGY      TEMP
                                          (SEE NOTE)     KJ/KG-MOL      K  
 FUEL        H2                           1.0000000         0.000      0.000
 OXIDANT     H2                           1.0000000         0.000      0.000

 O/F=    1.00000  %FUEL= 50.000000  R,EQ.RATIO= 0.000000  PHI,EQ.RATIO=-1.000000

 THERMODYNAMIC PROPERTIES

 P, BAR            100.00   100.00   100.00   100.00   100.00   100.00   100.00   100.00
 T, K             1300.00  1310.00  1320.00  1330.00  1340.00  1350.00  1360.00  1370.00
 RHO, KG/CU M    1.8650 0 1.8508 0 1.8368 0 1.8230 0 1.8094 0 1.7960 0 1.7828 0 1.7697 0
 H, KJ/KG         14839.4  14995.4  15151.6  15308.0  15464.6  15621.5  15778.6  15935.9
 U, KJ/KG         9477.54  9592.27  9707.23  9822.41  9937.81  10053.4  10169.3  10285.3
 G, KJ/KG        -72862.1 -73537.3 -74213.8 -74891.4 -75570.1 -76250.1 -76931.2 -77613.5
 S, KJ/(KG)(K)    67.4627  67.5822  67.7010  67.8191  67.9364  68.0530  68.1689  68.2842

 M, (1/n)           2.016    2.016    2.016    2.016    2.016    2.016    2.016    2.016
 (dLV/dLP)t      -1.00000 -1.00000 -1.00000 -1.00000 -1.00000 -1.00000 -1.00000 -1.00000
 (dLV/dLT)p        1.0000   1.0000   1.0000   1.0000   1.0000   1.0000   1.0000   1.0000
 Cp, KJ/(KG)(K)   15.5872  15.6092  15.6313  15.6534  15.6755  15.6976  15.7197  15.7418
 GAMMAs            1.3598   1.3591   1.3584   1.3578   1.3571   1.3564   1.3557   1.3550
 SON VEL,M/SEC     2700.2   2709.9   2719.5   2729.1   2738.7   2748.2   2757.6   2767.1

 TRANSPORT PROPERTIES (GASES ONLY)
   CONDUCTIVITY IN UNITS OF MILLIWATTS/(CM)(K)

 VISC,MILLIPOISE  0.24682  0.24814  0.24945  0.25076  0.25207  0.25338  0.25468  0.25598

  WITH EQUILIBRIUM REACTIONS

 Cp, KJ/(KG)(K)   15.5872  15.6092  15.6313  15.6534  15.6755  15.6976  15.7197  15.7418
 CONDUCTIVITY      5.5063   5.5425   5.5787   5.6149   5.6511   5.6874   5.7238   5.7601
 PRANDTL NUMBER    0.6987   0.6988   0.6990   0.6991   0.6992   0.6993   0.6994   0.6996

  WITH FROZEN REACTIONS

 Cp, KJ/(KG)(K)   15.5870  15.6090  15.6310  15.6531  15.6752  15.6972  15.7193  15.7413
 CONDUCTIVITY      5.5062   5.5423   5.5785   5.6147   5.6509   5.6872   5.7235   5.7598
 PRANDTL NUMBER    0.6987   0.6988   0.6990   0.6991   0.6992   0.6993   0.6995   0.6996

 MASS FRACTIONS

 *H2              1.00000  1.00000  1.00000  1.00000  1.00000  1.00000  1.00000  1.00000

  * THERMODYNAMIC PROPERTIES FITTED TO 20000.K

 NOTE. WEIGHT FRACTION OF FUEL IN TOTAL FUELS AND OF OXIDANT IN TOTAL OXIDANTS









               THERMODYNAMIC EQUILIBRIUM PROPERTIES AT ASSIGNED

                           TEMPERATURE AND PRESSURE

 CASE =                

             REACTANT                    WT FRACTION      ENERGY      TEMP
                                          (SEE NOTE)     KJ/KG-MOL      K  
 FUEL        H2                           1.0000000         0.000      0.000
 OXIDANT     H2                           1.0000000         0.000      0.000

 O/F=    1.00000  %FUEL= 50.000000  R,EQ.RATIO= 0.000000  PHI,EQ.RATIO=-1.000000

 THERMODYNAMIC PROPERTIES

 P, BAR            100.00   100.00   110.00   110.00   110.00   110.00   110.00   110.00
 T, K             1380.00  1390.00  1250.00  1260.00  1270.00  1280.00  1290.00  1300.00
 RHO, KG/CU M    1.7569 0 1.7443 0 2.1336 0 2.1167 0 2.1000 0 2.0836 0 2.0674 0 2.0515 0
 H, KJ/KG         16093.4  16251.2  14062.8  14217.6  14372.7  14528.1  14683.6  14839.4
 U, KJ/KG         10401.6  10518.1  8907.15  9020.79  9134.65  9248.72  9363.02  9477.54
 G, KJ/KG        -78296.9 -78981.4 -69012.8 -69678.0 -70344.4 -71012.1 -71681.0 -72351.1
 S, KJ/(KG)(K)    68.3988  68.5127  66.4605  66.5838  66.7064  66.8283  66.9493  67.0696

 M, (1/n)           2.016    2.016    2.016    2.016    2.016    2.016    2.016    2.016
 (dLV/dLP)t      -1.00000 -1.00000 -1.00000 -1.00000 -1.00000 -1.00000 -1.00000 -1.00000
 (dLV/dLT)p        1.0000   1.0000   1.0000   1.0000   1.0000   1.0000   1.0000   1.0000
 Cp, KJ/(KG)(K)   15.7639  15.7860  15.4774  15.4993  15.5212  15.5431  15.5651  15.5872
 GAMMAs            1.3544   1.3537   1.3633   1.3626   1.3619   1.3612   1.3605   1.3598
 SON VEL,M/SEC     2776.5   2785.8   2651.2   2661.1   2670.9   2680.7   2690.5   2700.2

 TRANSPORT PROPERTIES (GASES ONLY)
   CONDUCTIVITY IN UNITS OF MILLIWATTS/(CM)(K)

 VISC,MILLIPOISE  0.25728  0.25857  0.24020  0.24153  0.24286  0.24418  0.24551  0.24682

  WITH EQUILIBRIUM REACTIONS

 Cp, KJ/(KG)(K)   15.7639  15.7860  15.4774  15.4993  15.5212  15.5431  15.5651  15.5872
 CONDUCTIVITY      5.7965   5.8330   5.3261   5.3620   5.3980   5.4341   5.4702   5.5063
 PRANDTL NUMBER    0.6997   0.6998   0.6980   0.6982   0.6983   0.6984   0.6986   0.6987

  WITH FROZEN REACTIONS

 Cp, KJ/(KG)(K)   15.7634  15.7854  15.4774  15.4992  15.5211  15.5430  15.5650  15.5870
 CONDUCTIVITY      5.7961   5.8325   5.3260   5.3619   5.3979   5.4340   5.4701   5.5062
 PRANDTL NUMBER    0.6997   0.6998   0.6980   0.6982   0.6983   0.6984   0.6986   0.6987

 MASS FRACTIONS

 *H2              1.00000  1.00000  1.00000  1.00000  1.00000  1.00000  1.00000  1.00000

  * THERMODYNAMIC PROPERTIES FITTED TO 20000.K

 NOTE. WEIGHT FRACTION OF FUEL IN TOTAL FUELS AND OF OXIDANT IN TOTAL OXIDANTS









               THERMODYNAMIC EQUILIBRIUM PROPERTIES AT ASSIGNED

                           TEMPERATURE AND PRESSURE

 CASE =                

             REACTANT                    WT FRACTION      ENERGY      TEMP
                                          (SEE NOTE)     KJ/KG-MOL      K  
 FUEL        H2                           1.0000000         0.000      0.000
 OXIDANT     H2                           1.0000000         0.000      0.000

 O/F=    1.00000  %FUEL= 50.000000  R,EQ.RATIO= 0.000000  PHI,EQ.RATIO=-1.000000

 THERMODYNAMIC PROPERTIES

 P, BAR            110.00   110.00   110.00   110.00   110.00   110.00   110.00   110.00
 T, K             1310.00  1320.00  1330.00  1340.00  1350.00  1360.00  1370.00  1380.00
 RHO, KG/CU M    2.0359 0 2.0205 0 2.0053 0 1.9903 0 1.9756 0 1.9610 0 1.9467 0 1.9326 0
 H, KJ/KG         14995.4  15151.6  15308.0  15464.6  15621.5  15778.6  15935.9  16093.4
 U, KJ/KG         9592.27  9707.23  9822.41  9937.81  10053.4  10169.3  10285.3  10401.6
 G, KJ/KG        -73022.4 -73694.9 -74368.5 -75043.4 -75719.4 -76396.6 -77074.9 -77754.4
 S, KJ/(KG)(K)    67.1891  67.3079  67.4259  67.5433  67.6599  67.7758  67.8911  68.0057

 M, (1/n)           2.016    2.016    2.016    2.016    2.016    2.016    2.016    2.016
 (dLV/dLP)t      -1.00000 -1.00000 -1.00000 -1.00000 -1.00000 -1.00000 -1.00000 -1.00000
 (dLV/dLT)p        1.0000   1.0000   1.0000   1.0000   1.0000   1.0000   1.0000   1.0000
 Cp, KJ/(KG)(K)   15.6092  15.6313  15.6534  15.6755  15.6976  15.7197  15.7418  15.7639
 GAMMAs            1.3591   1.3584   1.3578   1.3571   1.3564   1.3557   1.3550   1.3544
 SON VEL,M/SEC     2709.9   2719.5   2729.1   2738.7   2748.2   2757.6   2767.1   2776.5

 TRANSPORT PROPERTIES (GASES ONLY)
   CONDUCTIVITY IN UNITS OF MILLIWATTS/(CM)(K)

 VISC,MILLIPOISE  0.24814  0.24945  0.25076  0.25207  0.25338  0.25468  0.25598  0.25728

  WITH EQUILIBRIUM REACTIONS

 Cp, KJ/(KG)(K)   15.6092  15.6313  15.6534  15.6755  15.6976  15.7197  15.7418  15.7639
 CONDUCTIVITY      5.5425   5.5786   5.6149   5.6511   5.6874   5.7238   5.7601   5.7965
 PRANDTL NUMBER    0.6988   0.6990   0.6991   0.6992   0.6993   0.6994   0.6996   0.6997

  WITH FROZEN REACTIONS

 Cp, KJ/(KG)(K)   15.6090  15.6310  15.6531  15.6752  15.6972  15.7193  15.7413  15.7634
 CONDUCTIVITY      5.5423   5.5785   5.6147   5.6509   5.6872   5.7235   5.7598   5.7961
 PRANDTL NUMBER    0.6988   0.6990   0.6991   0.6992   0.6993   0.6995   0.6996   0.6997

 MASS FRACTIONS

 *H2              1.00000  1.00000  1.00000  1.00000  1.00000  1.00000  1.00000  1.00000

  * THERMODYNAMIC PROPERTIES FITTED TO 20000.K

 NOTE. WEIGHT FRACTION OF FUEL IN TOTAL FUELS AND OF OXIDANT IN TOTAL OXIDANTS









               THERMODYNAMIC EQUILIBRIUM PROPERTIES AT ASSIGNED

                           TEMPERATURE AND PRESSURE

 CASE =                

             REACTANT                    WT FRACTION      ENERGY      TEMP
                                          (SEE NOTE)     KJ/KG-MOL      K  
 FUEL        H2                           1.0000000         0.000      0.000
 OXIDANT     H2                           1.0000000         0.000      0.000

 O/F=    1.00000  %FUEL= 50.000000  R,EQ.RATIO= 0.000000  PHI,EQ.RATIO=-1.000000

 THERMODYNAMIC PROPERTIES

 P, BAR            110.00   120.00   120.00   120.00   120.00   120.00   120.00   120.00
 T, K             1390.00  1250.00  1260.00  1270.00  1280.00  1290.00  1300.00  1310.00
 RHO, KG/CU M    1.9187 0 2.3276 0 2.3091 0 2.2909 0 2.2730 0 2.2554 0 2.2380 0 2.2210 0
 H, KJ/KG         16251.2  14062.8  14217.6  14372.7  14528.1  14683.6  14839.4  14995.4
 U, KJ/KG         10518.1  8907.15  9020.79  9134.65  9248.72  9363.02  9477.54  9592.27
 G, KJ/KG        -78435.0 -68564.2 -69225.8 -69888.7 -70552.7 -71218.0 -71884.5 -72552.2
 S, KJ/(KG)(K)    68.1195  66.1016  66.2250  66.3476  66.4694  66.5904  66.7107  66.8302

 M, (1/n)           2.016    2.016    2.016    2.016    2.016    2.016    2.016    2.016
 (dLV/dLP)t      -1.00000 -1.00000 -1.00000 -1.00000 -1.00000 -1.00000 -1.00000 -1.00000
 (dLV/dLT)p        1.0000   1.0000   1.0000   1.0000   1.0000   1.0000   1.0000   1.0000
 Cp, KJ/(KG)(K)   15.7860  15.4774  15.4993  15.5212  15.5431  15.5651  15.5872  15.6092
 GAMMAs            1.3537   1.3633   1.3626   1.3619   1.3612   1.3605   1.3598   1.3591
 SON VEL,M/SEC     2785.8   2651.2   2661.1   2670.9   2680.7   2690.5   2700.2   2709.9

 TRANSPORT PROPERTIES (GASES ONLY)
   CONDUCTIVITY IN UNITS OF MILLIWATTS/(CM)(K)

 VISC,MILLIPOISE  0.25857  0.24020  0.24153  0.24286  0.24418  0.24551  0.24682  0.24814

  WITH EQUILIBRIUM REACTIONS

 Cp, KJ/(KG)(K)   15.7860  15.4774  15.4993  15.5212  15.5431  15.5651  15.5872  15.6092
 CONDUCTIVITY      5.8329   5.3261   5.3620   5.3980   5.4341   5.4702   5.5063   5.5424
 PRANDTL NUMBER    0.6998   0.6980   0.6982   0.6983   0.6984   0.6986   0.6987   0.6988

  WITH FROZEN REACTIONS

 Cp, KJ/(KG)(K)   15.7854  15.4774  15.4992  15.5211  15.5430  15.5650  15.5870  15.6090
 CONDUCTIVITY      5.8325   5.3260   5.3619   5.3979   5.4340   5.4701   5.5062   5.5423
 PRANDTL NUMBER    0.6998   0.6980   0.6982   0.6983   0.6984   0.6986   0.6987   0.6988

 MASS FRACTIONS

 *H2              1.00000  1.00000  1.00000  1.00000  1.00000  1.00000  1.00000  1.00000

  * THERMODYNAMIC PROPERTIES FITTED TO 20000.K

 NOTE. WEIGHT FRACTION OF FUEL IN TOTAL FUELS AND OF OXIDANT IN TOTAL OXIDANTS









               THERMODYNAMIC EQUILIBRIUM PROPERTIES AT ASSIGNED

                           TEMPERATURE AND PRESSURE

 CASE =                

             REACTANT                    WT FRACTION      ENERGY      TEMP
                                          (SEE NOTE)     KJ/KG-MOL      K  
 FUEL        H2                           1.0000000         0.000      0.000
 OXIDANT     H2                           1.0000000         0.000      0.000

 O/F=    1.00000  %FUEL= 50.000000  R,EQ.RATIO= 0.000000  PHI,EQ.RATIO=-1.000000

 THERMODYNAMIC PROPERTIES

 P, BAR            120.00   120.00   120.00   120.00   120.00   120.00   120.00   120.00
 T, K             1320.00  1330.00  1340.00  1350.00  1360.00  1370.00  1380.00  1390.00
 RHO, KG/CU M    2.2041 0 2.1876 0 2.1712 0 2.1552 0 2.1393 0 2.1237 0 2.1083 0 2.0931 0
 H, KJ/KG         15151.6  15308.0  15464.6  15621.5  15778.6  15935.9  16093.4  16251.2
 U, KJ/KG         9707.23  9822.41  9937.81  10053.4  10169.3  10285.3  10401.6  10518.1
 G, KJ/KG        -73221.1 -73891.2 -74562.5 -75234.9 -75908.5 -76583.2 -77259.1 -77936.2
 S, KJ/(KG)(K)    66.9490  67.0671  67.1844  67.3010  67.4170  67.5322  67.6468  67.7607

 M, (1/n)           2.016    2.016    2.016    2.016    2.016    2.016    2.016    2.016
 (dLV/dLP)t      -1.00000 -1.00000 -1.00000 -1.00000 -1.00000 -1.00000 -1.00000 -1.00000
 (dLV/dLT)p        1.0000   1.0000   1.0000   1.0000   1.0000   1.0000   1.0000   1.0000
 Cp, KJ/(KG)(K)   15.6313  15.6534  15.6755  15.6976  15.7197  15.7418  15.7639  15.7860
 GAMMAs            1.3584   1.3578   1.3571   1.3564   1.3557   1.3550   1.3544   1.3537
 SON VEL,M/SEC     2719.5   2729.1   2738.7   2748.2   2757.6   2767.1   2776.5   2785.8

 TRANSPORT PROPERTIES (GASES ONLY)
   CONDUCTIVITY IN UNITS OF MILLIWATTS/(CM)(K)

 VISC,MILLIPOISE  0.24945  0.25076  0.25207  0.25338  0.25468  0.25598  0.25728  0.25857

  WITH EQUILIBRIUM REACTIONS

 Cp, KJ/(KG)(K)   15.6313  15.6534  15.6755  15.6976  15.7197  15.7418  15.7639  15.7860
 CONDUCTIVITY      5.5786   5.6149   5.6511   5.6874   5.7237   5.7601   5.7965   5.8329
 PRANDTL NUMBER    0.6990   0.6991   0.6992   0.6993   0.6994   0.6996   0.6997   0.6998

  WITH FROZEN REACTIONS

 Cp, KJ/(KG)(K)   15.6310  15.6531  15.6752  15.6972  15.7193  15.7413  15.7634  15.7854
 CONDUCTIVITY      5.5785   5.6147   5.6509   5.6872   5.7235   5.7598   5.7961   5.8325
 PRANDTL NUMBER    0.6990   0.6991   0.6992   0.6993   0.6995   0.6996   0.6997   0.6998

 MASS FRACTIONS

 *H2              1.00000  1.00000  1.00000  1.00000  1.00000  1.00000  1.00000  1.00000

  * THERMODYNAMIC PROPERTIES FITTED TO 20000.K

 NOTE. WEIGHT FRACTION OF FUEL IN TOTAL FUELS AND OF OXIDANT IN TOTAL OXIDANTS









               THERMODYNAMIC EQUILIBRIUM PROPERTIES AT ASSIGNED

                           TEMPERATURE AND PRESSURE

 CASE =                

             REACTANT                    WT FRACTION      ENERGY      TEMP
                                          (SEE NOTE)     KJ/KG-MOL      K  
 FUEL        H2                           1.0000000         0.000      0.000
 OXIDANT     H2                           1.0000000         0.000      0.000

 O/F=    1.00000  %FUEL= 50.000000  R,EQ.RATIO= 0.000000  PHI,EQ.RATIO=-1.000000

 THERMODYNAMIC PROPERTIES

 P, BAR            132.00   132.00   132.00   132.00   132.00   132.00   132.00   132.00
 T, K             1250.00  1260.00  1270.00  1280.00  1290.00  1300.00  1310.00  1320.00
 RHO, KG/CU M    2.5603 0 2.5400 0 2.5200 0 2.5003 0 2.4809 0 2.4618 0 2.4431 0 2.4245 0
 H, KJ/KG         14062.8  14217.6  14372.7  14528.1  14683.6  14839.4  14995.4  15151.6
 U, KJ/KG         8907.15  9020.79  9134.65  9248.72  9363.02  9477.54  9592.27  9707.23
 G, KJ/KG        -68072.8 -68730.5 -69389.4 -70049.6 -70710.9 -71373.5 -72037.3 -72702.2
 S, KJ/(KG)(K)    65.7085  65.8319  65.9545  66.0763  66.1973  66.3176  66.4371  66.5559

 M, (1/n)           2.016    2.016    2.016    2.016    2.016    2.016    2.016    2.016
 (dLV/dLP)t      -1.00000 -1.00000 -1.00000 -1.00000 -1.00000 -1.00000 -1.00000 -1.00000
 (dLV/dLT)p        1.0000   1.0000   1.0000   1.0000   1.0000   1.0000   1.0000   1.0000
 Cp, KJ/(KG)(K)   15.4774  15.4993  15.5212  15.5431  15.5651  15.5871  15.6092  15.6313
 GAMMAs            1.3633   1.3626   1.3619   1.3612   1.3605   1.3598   1.3591   1.3584
 SON VEL,M/SEC     2651.2   2661.1   2670.9   2680.7   2690.5   2700.2   2709.9   2719.5

 TRANSPORT PROPERTIES (GASES ONLY)
   CONDUCTIVITY IN UNITS OF MILLIWATTS/(CM)(K)

 VISC,MILLIPOISE  0.24020  0.24153  0.24286  0.24418  0.24551  0.24682  0.24814  0.24945

  WITH EQUILIBRIUM REACTIONS

 Cp, KJ/(KG)(K)   15.4774  15.4993  15.5212  15.5431  15.5651  15.5871  15.6092  15.6313
 CONDUCTIVITY      5.3260   5.3620   5.3980   5.4341   5.4701   5.5063   5.5424   5.5786
 PRANDTL NUMBER    0.6980   0.6982   0.6983   0.6984   0.6986   0.6987   0.6988   0.6990

  WITH FROZEN REACTIONS

 Cp, KJ/(KG)(K)   15.4774  15.4992  15.5211  15.5430  15.5650  15.5870  15.6090  15.6310
 CONDUCTIVITY      5.3260   5.3619   5.3979   5.4340   5.4701   5.5062   5.5423   5.5785
 PRANDTL NUMBER    0.6980   0.6982   0.6983   0.6984   0.6986   0.6987   0.6988   0.6990

 MASS FRACTIONS

 *H2              1.00000  1.00000  1.00000  1.00000  1.00000  1.00000  1.00000  1.00000

  * THERMODYNAMIC PROPERTIES FITTED TO 20000.K

 NOTE. WEIGHT FRACTION OF FUEL IN TOTAL FUELS AND OF OXIDANT IN TOTAL OXIDANTS









               THERMODYNAMIC EQUILIBRIUM PROPERTIES AT ASSIGNED

                           TEMPERATURE AND PRESSURE

 CASE =                

             REACTANT                    WT FRACTION      ENERGY      TEMP
                                          (SEE NOTE)     KJ/KG-MOL      K  
 FUEL        H2                           1.0000000         0.000      0.000
 OXIDANT     H2                           1.0000000         0.000      0.000

 O/F=    1.00000  %FUEL= 50.000000  R,EQ.RATIO= 0.000000  PHI,EQ.RATIO=-1.000000

 THERMODYNAMIC PROPERTIES

 P, BAR            132.00   132.00   132.00   132.00   132.00   132.00   132.00   148.00
 T, K             1330.00  1340.00  1350.00  1360.00  1370.00  1380.00  1390.00  1250.00
 RHO, KG/CU M    2.4063 0 2.3884 0 2.3707 0 2.3532 0 2.3361 0 2.3191 0 2.3024 0 2.8707 0
 H, KJ/KG         15308.0  15464.6  15621.5  15778.6  15935.9  16093.4  16251.2  14062.8
 U, KJ/KG         9822.41  9937.81  10053.4  10169.3  10285.3  10401.6  10518.1  8907.15
 G, KJ/KG        -73368.4 -74035.7 -74704.2 -75373.9 -76044.7 -76716.6 -77389.8 -67483.0
 S, KJ/(KG)(K)    66.6740  66.7913  66.9079  67.0239  67.1391  67.2537  67.3676  65.2366

 M, (1/n)           2.016    2.016    2.016    2.016    2.016    2.016    2.016    2.016
 (dLV/dLP)t      -1.00000 -1.00000 -1.00000 -1.00000 -1.00000 -1.00000 -1.00000 -1.00000
 (dLV/dLT)p        1.0000   1.0000   1.0000   1.0000   1.0000   1.0000   1.0000   1.0000
 Cp, KJ/(KG)(K)   15.6534  15.6755  15.6976  15.7197  15.7418  15.7639  15.7859  15.4774
 GAMMAs            1.3578   1.3571   1.3564   1.3557   1.3550   1.3544   1.3537   1.3633
 SON VEL,M/SEC     2729.1   2738.7   2748.2   2757.6   2767.1   2776.5   2785.8   2651.2

 TRANSPORT PROPERTIES (GASES ONLY)
   CONDUCTIVITY IN UNITS OF MILLIWATTS/(CM)(K)

 VISC,MILLIPOISE  0.25076  0.25207  0.25338  0.25468  0.25598  0.25728  0.25857  0.24020

  WITH EQUILIBRIUM REACTIONS

 Cp, KJ/(KG)(K)   15.6534  15.6755  15.6976  15.7197  15.7418  15.7639  15.7859  15.4774
 CONDUCTIVITY      5.6149   5.6511   5.6874   5.7237   5.7601   5.7965   5.8329   5.3260
 PRANDTL NUMBER    0.6991   0.6992   0.6993   0.6994   0.6996   0.6997   0.6998   0.6980

  WITH FROZEN REACTIONS

 Cp, KJ/(KG)(K)   15.6531  15.6752  15.6972  15.7193  15.7413  15.7634  15.7854  15.4774
 CONDUCTIVITY      5.6147   5.6509   5.6872   5.7235   5.7598   5.7961   5.8325   5.3260
 PRANDTL NUMBER    0.6991   0.6992   0.6993   0.6995   0.6996   0.6997   0.6998   0.6980

 MASS FRACTIONS

 *H2              1.00000  1.00000  1.00000  1.00000  1.00000  1.00000  1.00000  1.00000

  * THERMODYNAMIC PROPERTIES FITTED TO 20000.K

 NOTE. WEIGHT FRACTION OF FUEL IN TOTAL FUELS AND OF OXIDANT IN TOTAL OXIDANTS









               THERMODYNAMIC EQUILIBRIUM PROPERTIES AT ASSIGNED

                           TEMPERATURE AND PRESSURE

 CASE =                

             REACTANT                    WT FRACTION      ENERGY      TEMP
                                          (SEE NOTE)     KJ/KG-MOL      K  
 FUEL        H2                           1.0000000         0.000      0.000
 OXIDANT     H2                           1.0000000         0.000      0.000

 O/F=    1.00000  %FUEL= 50.000000  R,EQ.RATIO= 0.000000  PHI,EQ.RATIO=-1.000000

 THERMODYNAMIC PROPERTIES

 P, BAR            148.00   148.00   148.00   148.00   148.00   148.00   148.00   148.00
 T, K             1260.00  1270.00  1280.00  1290.00  1300.00  1310.00  1320.00  1330.00
 RHO, KG/CU M    2.8479 0 2.8255 0 2.8034 0 2.7816 0 2.7603 0 2.7392 0 2.7184 0 2.6980 0
 H, KJ/KG         14217.6  14372.7  14528.1  14683.6  14839.4  14995.4  15151.6  15308.0
 U, KJ/KG         9020.79  9134.65  9248.72  9363.02  9477.54  9592.27  9707.23  9822.41
 G, KJ/KG        -68135.9 -68790.1 -69445.5 -70102.2 -70760.0 -71419.1 -72079.3 -72740.8
 S, KJ/(KG)(K)    65.3600  65.4826  65.6044  65.7254  65.8457  65.9652  66.0840  66.2021

 M, (1/n)           2.016    2.016    2.016    2.016    2.016    2.016    2.016    2.016
 (dLV/dLP)t      -1.00000 -1.00000 -1.00000 -1.00000 -1.00000 -1.00000 -1.00000 -1.00000
 (dLV/dLT)p        1.0000   1.0000   1.0000   1.0000   1.0000   1.0000   1.0000   1.0000
 Cp, KJ/(KG)(K)   15.4993  15.5212  15.5431  15.5651  15.5871  15.6092  15.6313  15.6533
 GAMMAs            1.3626   1.3619   1.3612   1.3605   1.3598   1.3591   1.3584   1.3578
 SON VEL,M/SEC     2661.1   2670.9   2680.7   2690.5   2700.2   2709.9   2719.5   2729.1

 TRANSPORT PROPERTIES (GASES ONLY)
   CONDUCTIVITY IN UNITS OF MILLIWATTS/(CM)(K)

 VISC,MILLIPOISE  0.24153  0.24286  0.24418  0.24551  0.24682  0.24814  0.24945  0.25076

  WITH EQUILIBRIUM REACTIONS

 Cp, KJ/(KG)(K)   15.4993  15.5212  15.5431  15.5651  15.5871  15.6092  15.6313  15.6533
 CONDUCTIVITY      5.3620   5.3980   5.4341   5.4701   5.5063   5.5424   5.5786   5.6149
 PRANDTL NUMBER    0.6982   0.6983   0.6984   0.6986   0.6987   0.6988   0.6990   0.6991

  WITH FROZEN REACTIONS

 Cp, KJ/(KG)(K)   15.4992  15.5211  15.5430  15.5650  15.5870  15.6090  15.6310  15.6531
 CONDUCTIVITY      5.3619   5.3979   5.4340   5.4701   5.5062   5.5423   5.5785   5.6147
 PRANDTL NUMBER    0.6982   0.6983   0.6984   0.6986   0.6987   0.6988   0.6990   0.6991

 MASS FRACTIONS

 *H2              1.00000  1.00000  1.00000  1.00000  1.00000  1.00000  1.00000  1.00000

  * THERMODYNAMIC PROPERTIES FITTED TO 20000.K

 NOTE. WEIGHT FRACTION OF FUEL IN TOTAL FUELS AND OF OXIDANT IN TOTAL OXIDANTS









               THERMODYNAMIC EQUILIBRIUM PROPERTIES AT ASSIGNED

                           TEMPERATURE AND PRESSURE

 CASE =                

             REACTANT                    WT FRACTION      ENERGY      TEMP
                                          (SEE NOTE)     KJ/KG-MOL      K  
 FUEL        H2                           1.0000000         0.000      0.000
 OXIDANT     H2                           1.0000000         0.000      0.000

 O/F=    1.00000  %FUEL= 50.000000  R,EQ.RATIO= 0.000000  PHI,EQ.RATIO=-1.000000

 THERMODYNAMIC PROPERTIES

 P, BAR            148.00   148.00   148.00   148.00   148.00   148.00   165.00   165.00
 T, K             1340.00  1350.00  1360.00  1370.00  1380.00  1390.00  1250.00  1260.00
 RHO, KG/CU M    2.6779 0 2.6580 0 2.6385 0 2.6192 0 2.6002 0 2.5815 0 3.2004 0 3.1750 0
 H, KJ/KG         15464.6  15621.5  15778.6  15935.9  16093.4  16251.2  14062.8  14217.6
 U, KJ/KG         9937.81  10053.4  10169.3  10285.3  10401.6  10518.1  8907.15  9020.79
 G, KJ/KG        -73403.4 -74067.2 -74732.1 -75398.2 -76065.4 -76733.8 -66922.4 -67570.8
 S, KJ/(KG)(K)    66.3194  66.4360  66.5520  66.6672  66.7818  66.8957  64.7881  64.9115

 M, (1/n)           2.016    2.016    2.016    2.016    2.016    2.016    2.016    2.016
 (dLV/dLP)t      -1.00000 -1.00000 -1.00000 -1.00000 -1.00000 -1.00000 -1.00000 -1.00000
 (dLV/dLT)p        1.0000   1.0000   1.0000   1.0000   1.0000   1.0000   1.0000   1.0000
 Cp, KJ/(KG)(K)   15.6754  15.6975  15.7196  15.7417  15.7638  15.7859  15.4774  15.4993
 GAMMAs            1.3571   1.3564   1.3557   1.3550   1.3544   1.3537   1.3633   1.3626
 SON VEL,M/SEC     2738.7   2748.2   2757.7   2767.1   2776.5   2785.8   2651.2   2661.1

 TRANSPORT PROPERTIES (GASES ONLY)
   CONDUCTIVITY IN UNITS OF MILLIWATTS/(CM)(K)

 VISC,MILLIPOISE  0.25207  0.25338  0.25468  0.25598  0.25728  0.25857  0.24020  0.24153

  WITH EQUILIBRIUM REACTIONS

 Cp, KJ/(KG)(K)   15.6754  15.6975  15.7196  15.7417  15.7638  15.7859  15.4774  15.4993
 CONDUCTIVITY      5.6511   5.6874   5.7237   5.7601   5.7965   5.8329   5.3260   5.3620
 PRANDTL NUMBER    0.6992   0.6993   0.6994   0.6996   0.6997   0.6998   0.6980   0.6982

  WITH FROZEN REACTIONS

 Cp, KJ/(KG)(K)   15.6752  15.6972  15.7193  15.7413  15.7634  15.7854  15.4774  15.4992
 CONDUCTIVITY      5.6509   5.6872   5.7235   5.7598   5.7961   5.8325   5.3260   5.3619
 PRANDTL NUMBER    0.6992   0.6993   0.6995   0.6996   0.6997   0.6998   0.6980   0.6982

 MASS FRACTIONS

 *H2              1.00000  1.00000  1.00000  1.00000  1.00000  1.00000  1.00000  1.00000

  * THERMODYNAMIC PROPERTIES FITTED TO 20000.K

 NOTE. WEIGHT FRACTION OF FUEL IN TOTAL FUELS AND OF OXIDANT IN TOTAL OXIDANTS









               THERMODYNAMIC EQUILIBRIUM PROPERTIES AT ASSIGNED

                           TEMPERATURE AND PRESSURE

 CASE =                

             REACTANT                    WT FRACTION      ENERGY      TEMP
                                          (SEE NOTE)     KJ/KG-MOL      K  
 FUEL        H2                           1.0000000         0.000      0.000
 OXIDANT     H2                           1.0000000         0.000      0.000

 O/F=    1.00000  %FUEL= 50.000000  R,EQ.RATIO= 0.000000  PHI,EQ.RATIO=-1.000000

 THERMODYNAMIC PROPERTIES

 P, BAR            165.00   165.00   165.00   165.00   165.00   165.00   165.00   165.00
 T, K             1270.00  1280.00  1290.00  1300.00  1310.00  1320.00  1330.00  1340.00
 RHO, KG/CU M    3.1500 0 3.1254 0 3.1012 0 3.0773 0 3.0538 0 3.0307 0 3.0079 0 2.9854 0
 H, KJ/KG         14372.7  14528.1  14683.6  14839.4  14995.3  15151.6  15308.0  15464.6
 U, KJ/KG         9134.65  9248.72  9363.02  9477.54  9592.27  9707.23  9822.41  9937.81
 G, KJ/KG        -68220.6 -68871.5 -69523.7 -70177.0 -70831.6 -71487.4 -72144.3 -72802.4
 S, KJ/(KG)(K)    65.0341  65.1559  65.2770  65.3972  65.5168  65.6355  65.7536  65.8709

 M, (1/n)           2.016    2.016    2.016    2.016    2.016    2.016    2.016    2.016
 (dLV/dLP)t      -1.00000 -1.00000 -1.00000 -1.00000 -1.00000 -1.00000 -1.00000 -1.00000
 (dLV/dLT)p        1.0000   1.0000   1.0000   1.0000   1.0000   1.0000   1.0000   1.0000
 Cp, KJ/(KG)(K)   15.5212  15.5431  15.5651  15.5871  15.6092  15.6312  15.6533  15.6754
 GAMMAs            1.3619   1.3612   1.3605   1.3598   1.3591   1.3585   1.3578   1.3571
 SON VEL,M/SEC     2670.9   2680.7   2690.5   2700.2   2709.9   2719.5   2729.1   2738.7

 TRANSPORT PROPERTIES (GASES ONLY)
   CONDUCTIVITY IN UNITS OF MILLIWATTS/(CM)(K)

 VISC,MILLIPOISE  0.24286  0.24418  0.24551  0.24682  0.24814  0.24945  0.25076  0.25207

  WITH EQUILIBRIUM REACTIONS

 Cp, KJ/(KG)(K)   15.5212  15.5431  15.5651  15.5871  15.6092  15.6312  15.6533  15.6754
 CONDUCTIVITY      5.3980   5.4340   5.4701   5.5063   5.5424   5.5786   5.6148   5.6511
 PRANDTL NUMBER    0.6983   0.6984   0.6986   0.6987   0.6988   0.6990   0.6991   0.6992

  WITH FROZEN REACTIONS

 Cp, KJ/(KG)(K)   15.5211  15.5430  15.5650  15.5870  15.6090  15.6310  15.6531  15.6752
 CONDUCTIVITY      5.3979   5.4340   5.4701   5.5062   5.5423   5.5785   5.6147   5.6509
 PRANDTL NUMBER    0.6983   0.6984   0.6986   0.6987   0.6988   0.6990   0.6991   0.6992

 MASS FRACTIONS

 *H2              1.00000  1.00000  1.00000  1.00000  1.00000  1.00000  1.00000  1.00000

  * THERMODYNAMIC PROPERTIES FITTED TO 20000.K

 NOTE. WEIGHT FRACTION OF FUEL IN TOTAL FUELS AND OF OXIDANT IN TOTAL OXIDANTS









               THERMODYNAMIC EQUILIBRIUM PROPERTIES AT ASSIGNED

                           TEMPERATURE AND PRESSURE

 CASE =                

             REACTANT                    WT FRACTION      ENERGY      TEMP
                                          (SEE NOTE)     KJ/KG-MOL      K  
 FUEL        H2                           1.0000000         0.000      0.000
 OXIDANT     H2                           1.0000000         0.000      0.000

 O/F=    1.00000  %FUEL= 50.000000  R,EQ.RATIO= 0.000000  PHI,EQ.RATIO=-1.000000

 THERMODYNAMIC PROPERTIES

 P, BAR            165.00   165.00   165.00   165.00   165.00   180.00   180.00   180.00
 T, K             1350.00  1360.00  1370.00  1380.00  1390.00  1250.00  1260.00  1270.00
 RHO, KG/CU M    2.9633 0 2.9415 0 2.9201 0 2.8989 0 2.8781 0 3.4913 0 3.4636 0 3.4364 0
 H, KJ/KG         15621.5  15778.6  15935.9  16093.4  16251.2  14062.8  14217.6  14372.7
 U, KJ/KG         10053.4  10169.3  10285.3  10401.6  10518.1  8907.15  9020.79  9134.65
 G, KJ/KG        -73461.7 -74122.2 -74783.8 -75446.6 -76110.5 -66473.8 -67118.7 -67764.8
 S, KJ/(KG)(K)    65.9876  66.1035  66.2187  66.3333  66.4472  64.4293  64.5526  64.6752

 M, (1/n)           2.016    2.016    2.016    2.016    2.016    2.016    2.016    2.016
 (dLV/dLP)t      -1.00000 -1.00000 -1.00000 -1.00000 -1.00000 -1.00000 -1.00000 -1.00000
 (dLV/dLT)p        1.0000   1.0000   1.0000   1.0000   1.0000   1.0000   1.0000   1.0000
 Cp, KJ/(KG)(K)   15.6975  15.7196  15.7417  15.7638  15.7859  15.4774  15.4993  15.5212
 GAMMAs            1.3564   1.3557   1.3550   1.3544   1.3537   1.3633   1.3626   1.3619
 SON VEL,M/SEC     2748.2   2757.7   2767.1   2776.5   2785.8   2651.2   2661.1   2670.9

 TRANSPORT PROPERTIES (GASES ONLY)
   CONDUCTIVITY IN UNITS OF MILLIWATTS/(CM)(K)

 VISC,MILLIPOISE  0.25338  0.25468  0.25598  0.25728  0.25857  0.24020  0.24153  0.24286

  WITH EQUILIBRIUM REACTIONS

 Cp, KJ/(KG)(K)   15.6975  15.7196  15.7417  15.7638  15.7859  15.4774  15.4993  15.5212
 CONDUCTIVITY      5.6874   5.7237   5.7601   5.7964   5.8329   5.3260   5.3620   5.3980
 PRANDTL NUMBER    0.6993   0.6994   0.6996   0.6997   0.6998   0.6980   0.6982   0.6983

  WITH FROZEN REACTIONS

 Cp, KJ/(KG)(K)   15.6972  15.7193  15.7413  15.7634  15.7854  15.4774  15.4992  15.5211
 CONDUCTIVITY      5.6872   5.7235   5.7598   5.7961   5.8325   5.3260   5.3619   5.3979
 PRANDTL NUMBER    0.6993   0.6995   0.6996   0.6997   0.6998   0.6980   0.6982   0.6983

 MASS FRACTIONS

 *H2              1.00000  1.00000  1.00000  1.00000  1.00000  1.00000  1.00000  1.00000

  * THERMODYNAMIC PROPERTIES FITTED TO 20000.K

 NOTE. WEIGHT FRACTION OF FUEL IN TOTAL FUELS AND OF OXIDANT IN TOTAL OXIDANTS









               THERMODYNAMIC EQUILIBRIUM PROPERTIES AT ASSIGNED

                           TEMPERATURE AND PRESSURE

 CASE =                

             REACTANT                    WT FRACTION      ENERGY      TEMP
                                          (SEE NOTE)     KJ/KG-MOL      K  
 FUEL        H2                           1.0000000         0.000      0.000
 OXIDANT     H2                           1.0000000         0.000      0.000

 O/F=    1.00000  %FUEL= 50.000000  R,EQ.RATIO= 0.000000  PHI,EQ.RATIO=-1.000000

 THERMODYNAMIC PROPERTIES

 P, BAR            180.00   180.00   180.00   180.00   180.00   180.00   180.00   180.00
 T, K             1280.00  1290.00  1300.00  1310.00  1320.00  1330.00  1340.00  1350.00
 RHO, KG/CU M    3.4095 0 3.3831 0 3.3571 0 3.3314 0 3.3062 0 3.2813 0 3.2569 0 3.2327 0
 H, KJ/KG         14528.1  14683.6  14839.4  14995.3  15151.6  15308.0  15464.6  15621.5
 U, KJ/KG         9248.72  9363.02  9477.53  9592.27  9707.23  9822.41  9937.81  10053.4
 G, KJ/KG        -68412.1 -69060.7 -69710.5 -70361.5 -71013.6 -71667.0 -72321.5 -72977.2
 S, KJ/(KG)(K)    64.7970  64.9181  65.0384  65.1579  65.2767  65.3947  65.5121  65.6287

 M, (1/n)           2.016    2.016    2.016    2.016    2.016    2.016    2.016    2.016
 (dLV/dLP)t      -1.00000 -1.00000 -1.00000 -1.00000 -1.00000 -1.00000 -1.00000 -1.00000
 (dLV/dLT)p        1.0000   1.0000   1.0000   1.0000   1.0000   1.0000   1.0000   1.0000
 Cp, KJ/(KG)(K)   15.5431  15.5651  15.5871  15.6092  15.6312  15.6533  15.6754  15.6975
 GAMMAs            1.3612   1.3605   1.3598   1.3591   1.3585   1.3578   1.3571   1.3564
 SON VEL,M/SEC     2680.7   2690.5   2700.2   2709.9   2719.5   2729.1   2738.7   2748.2

 TRANSPORT PROPERTIES (GASES ONLY)
   CONDUCTIVITY IN UNITS OF MILLIWATTS/(CM)(K)

 VISC,MILLIPOISE  0.24418  0.24551  0.24682  0.24814  0.24945  0.25076  0.25207  0.25338

  WITH EQUILIBRIUM REACTIONS

 Cp, KJ/(KG)(K)   15.5431  15.5651  15.5871  15.6092  15.6312  15.6533  15.6754  15.6975
 CONDUCTIVITY      5.4340   5.4701   5.5063   5.5424   5.5786   5.6148   5.6511   5.6874
 PRANDTL NUMBER    0.6984   0.6986   0.6987   0.6988   0.6990   0.6991   0.6992   0.6993

  WITH FROZEN REACTIONS

 Cp, KJ/(KG)(K)   15.5430  15.5650  15.5870  15.6090  15.6310  15.6531  15.6752  15.6972
 CONDUCTIVITY      5.4340   5.4701   5.5062   5.5423   5.5785   5.6147   5.6509   5.6872
 PRANDTL NUMBER    0.6984   0.6986   0.6987   0.6988   0.6990   0.6991   0.6992   0.6993

 MASS FRACTIONS

 *H2              1.00000  1.00000  1.00000  1.00000  1.00000  1.00000  1.00000  1.00000

  * THERMODYNAMIC PROPERTIES FITTED TO 20000.K

 NOTE. WEIGHT FRACTION OF FUEL IN TOTAL FUELS AND OF OXIDANT IN TOTAL OXIDANTS









               THERMODYNAMIC EQUILIBRIUM PROPERTIES AT ASSIGNED

                           TEMPERATURE AND PRESSURE

 CASE =                

             REACTANT                    WT FRACTION      ENERGY      TEMP
                                          (SEE NOTE)     KJ/KG-MOL      K  
 FUEL        H2                           1.0000000         0.000      0.000
 OXIDANT     H2                           1.0000000         0.000      0.000

 O/F=    1.00000  %FUEL= 50.000000  R,EQ.RATIO= 0.000000  PHI,EQ.RATIO=-1.000000

 THERMODYNAMIC PROPERTIES

 P, BAR            180.00   180.00   180.00   180.00   200.00   200.00   200.00   200.00
 T, K             1360.00  1370.00  1380.00  1390.00  1250.00  1260.00  1270.00  1280.00
 RHO, KG/CU M    3.2090 0 3.1855 0 3.1624 0 3.1397 0 3.8793 0 3.8485 0 3.8182 0 3.7883 0
 H, KJ/KG         15778.6  15935.9  16093.4  16251.2  14062.8  14217.6  14372.7  14528.1
 U, KJ/KG         10169.3  10285.3  10401.6  10518.1  8907.15  9020.79  9134.65  9248.72
 G, KJ/KG        -73634.1 -74292.1 -74951.3 -75611.6 -65930.6 -66571.1 -67212.9 -67855.9
 S, KJ/(KG)(K)    65.7446  65.8599  65.9744  66.0883  63.9947  64.1181  64.2407  64.3625

 M, (1/n)           2.016    2.016    2.016    2.016    2.016    2.016    2.016    2.016
 (dLV/dLP)t      -1.00000 -1.00000 -1.00000 -1.00000 -1.00000 -1.00000 -1.00000 -1.00000
 (dLV/dLT)p        1.0000   1.0000   1.0000   1.0000   1.0000   1.0000   1.0000   1.0000
 Cp, KJ/(KG)(K)   15.7196  15.7417  15.7638  15.7858  15.4774  15.4993  15.5212  15.5431
 GAMMAs            1.3557   1.3550   1.3544   1.3537   1.3633   1.3626   1.3619   1.3612
 SON VEL,M/SEC     2757.7   2767.1   2776.5   2785.8   2651.2   2661.1   2670.9   2680.7

 TRANSPORT PROPERTIES (GASES ONLY)
   CONDUCTIVITY IN UNITS OF MILLIWATTS/(CM)(K)

 VISC,MILLIPOISE  0.25468  0.25598  0.25728  0.25857  0.24020  0.24153  0.24286  0.24418

  WITH EQUILIBRIUM REACTIONS

 Cp, KJ/(KG)(K)   15.7196  15.7417  15.7638  15.7858  15.4774  15.4993  15.5212  15.5431
 CONDUCTIVITY      5.7237   5.7600   5.7964   5.8328   5.3260   5.3620   5.3980   5.4340
 PRANDTL NUMBER    0.6995   0.6996   0.6997   0.6998   0.6980   0.6982   0.6983   0.6984

  WITH FROZEN REACTIONS

 Cp, KJ/(KG)(K)   15.7193  15.7413  15.7634  15.7854  15.4774  15.4992  15.5211  15.5430
 CONDUCTIVITY      5.7235   5.7598   5.7961   5.8325   5.3260   5.3619   5.3979   5.4340
 PRANDTL NUMBER    0.6995   0.6996   0.6997   0.6998   0.6980   0.6982   0.6983   0.6984

 MASS FRACTIONS

 *H2              1.00000  1.00000  1.00000  1.00000  1.00000  1.00000  1.00000  1.00000

  * THERMODYNAMIC PROPERTIES FITTED TO 20000.K

 NOTE. WEIGHT FRACTION OF FUEL IN TOTAL FUELS AND OF OXIDANT IN TOTAL OXIDANTS









               THERMODYNAMIC EQUILIBRIUM PROPERTIES AT ASSIGNED

                           TEMPERATURE AND PRESSURE

 CASE =                

             REACTANT                    WT FRACTION      ENERGY      TEMP
                                          (SEE NOTE)     KJ/KG-MOL      K  
 FUEL        H2                           1.0000000         0.000      0.000
 OXIDANT     H2                           1.0000000         0.000      0.000

 O/F=    1.00000  %FUEL= 50.000000  R,EQ.RATIO= 0.000000  PHI,EQ.RATIO=-1.000000

 THERMODYNAMIC PROPERTIES

 P, BAR            200.00   200.00   200.00   200.00   200.00   200.00   200.00   200.00
 T, K             1290.00  1300.00  1310.00  1320.00  1330.00  1340.00  1350.00  1360.00
 RHO, KG/CU M    3.7590 0 3.7301 0 3.7016 0 3.6736 0 3.6459 0 3.6187 0 3.5919 0 3.5655 0
 H, KJ/KG         14683.6  14839.4  14995.3  15151.6  15308.0  15464.6  15621.5  15778.6
 U, KJ/KG         9363.02  9477.53  9592.27  9707.23  9822.41  9937.80  10053.4  10169.3
 G, KJ/KG        -68500.1 -69145.6 -69792.2 -70440.0 -71089.0 -71739.2 -72390.6 -73043.1
 S, KJ/(KG)(K)    64.4835  64.6038  64.7233  64.8421  64.9602  65.0775  65.1941  65.3101

 M, (1/n)           2.016    2.016    2.016    2.016    2.016    2.016    2.016    2.016
 (dLV/dLP)t      -1.00000 -1.00000 -1.00000 -1.00000 -1.00000 -1.00000 -1.00000 -1.00000
 (dLV/dLT)p        1.0000   1.0000   1.0000   1.0000   1.0000   1.0000   1.0000   1.0000
 Cp, KJ/(KG)(K)   15.5651  15.5871  15.6092  15.6312  15.6533  15.6754  15.6975  15.7196
 GAMMAs            1.3605   1.3598   1.3591   1.3585   1.3578   1.3571   1.3564   1.3557
 SON VEL,M/SEC     2690.5   2700.2   2709.9   2719.5   2729.1   2738.7   2748.2   2757.7

 TRANSPORT PROPERTIES (GASES ONLY)
   CONDUCTIVITY IN UNITS OF MILLIWATTS/(CM)(K)

 VISC,MILLIPOISE  0.24551  0.24682  0.24814  0.24945  0.25076  0.25207  0.25338  0.25468

  WITH EQUILIBRIUM REACTIONS

 Cp, KJ/(KG)(K)   15.5651  15.5871  15.6092  15.6312  15.6533  15.6754  15.6975  15.7196
 CONDUCTIVITY      5.4701   5.5063   5.5424   5.5786   5.6148   5.6511   5.6874   5.7237
 PRANDTL NUMBER    0.6986   0.6987   0.6988   0.6990   0.6991   0.6992   0.6993   0.6995

  WITH FROZEN REACTIONS

 Cp, KJ/(KG)(K)   15.5650  15.5870  15.6090  15.6310  15.6531  15.6752  15.6972  15.7193
 CONDUCTIVITY      5.4701   5.5062   5.5423   5.5785   5.6147   5.6509   5.6872   5.7235
 PRANDTL NUMBER    0.6986   0.6987   0.6988   0.6990   0.6991   0.6992   0.6993   0.6995

 MASS FRACTIONS

 *H2              1.00000  1.00000  1.00000  1.00000  1.00000  1.00000  1.00000  1.00000

  * THERMODYNAMIC PROPERTIES FITTED TO 20000.K

 NOTE. WEIGHT FRACTION OF FUEL IN TOTAL FUELS AND OF OXIDANT IN TOTAL OXIDANTS









               THERMODYNAMIC EQUILIBRIUM PROPERTIES AT ASSIGNED

                           TEMPERATURE AND PRESSURE

 CASE =                

             REACTANT                    WT FRACTION      ENERGY      TEMP
                                          (SEE NOTE)     KJ/KG-MOL      K  
 FUEL        H2                           1.0000000         0.000      0.000
 OXIDANT     H2                           1.0000000         0.000      0.000

 O/F=    1.00000  %FUEL= 50.000000  R,EQ.RATIO= 0.000000  PHI,EQ.RATIO=-1.000000

 THERMODYNAMIC PROPERTIES

 P, BAR            200.00   200.00   200.00   225.00   225.00   225.00   225.00   225.00
 T, K             1370.00  1380.00  1390.00  1250.00  1260.00  1270.00  1280.00  1290.00
 RHO, KG/CU M    3.5395 0 3.5138 0 3.4886 0 4.3642 0 4.3295 0 4.2955 0 4.2619 0 4.2289 0
 H, KJ/KG         15935.9  16093.4  16251.1  14062.8  14217.6  14372.7  14528.1  14683.6
 U, KJ/KG         10285.3  10401.6  10518.1  8907.15  9020.79  9134.65  9248.72  9363.02
 G, KJ/KG        -73696.8 -74351.6 -75007.6 -65323.4 -65959.0 -66595.9 -67234.1 -67873.4
 S, KJ/(KG)(K)    65.4253  65.5399  65.6538  63.5089  63.6323  63.7549  63.8767  63.9977

 M, (1/n)           2.016    2.016    2.016    2.016    2.016    2.016    2.016    2.016
 (dLV/dLP)t      -1.00000 -1.00000 -1.00000 -1.00000 -1.00000 -1.00000 -1.00000 -1.00000
 (dLV/dLT)p        1.0000   1.0000   1.0000   1.0000   1.0000   1.0000   1.0000   1.0000
 Cp, KJ/(KG)(K)   15.7417  15.7638  15.7858  15.4774  15.4993  15.5212  15.5431  15.5651
 GAMMAs            1.3550   1.3544   1.3537   1.3633   1.3626   1.3619   1.3612   1.3605
 SON VEL,M/SEC     2767.1   2776.5   2785.8   2651.2   2661.1   2670.9   2680.7   2690.5

 TRANSPORT PROPERTIES (GASES ONLY)
   CONDUCTIVITY IN UNITS OF MILLIWATTS/(CM)(K)

 VISC,MILLIPOISE  0.25598  0.25728  0.25857  0.24020  0.24153  0.24286  0.24418  0.24551

  WITH EQUILIBRIUM REACTIONS

 Cp, KJ/(KG)(K)   15.7417  15.7638  15.7858  15.4774  15.4993  15.5212  15.5431  15.5651
 CONDUCTIVITY      5.7600   5.7964   5.8328   5.3260   5.3620   5.3980   5.4340   5.4701
 PRANDTL NUMBER    0.6996   0.6997   0.6998   0.6980   0.6982   0.6983   0.6984   0.6986

  WITH FROZEN REACTIONS

 Cp, KJ/(KG)(K)   15.7413  15.7634  15.7854  15.4774  15.4992  15.5211  15.5430  15.5650
 CONDUCTIVITY      5.7598   5.7961   5.8325   5.3260   5.3619   5.3979   5.4340   5.4701
 PRANDTL NUMBER    0.6996   0.6997   0.6998   0.6980   0.6982   0.6983   0.6984   0.6986

 MASS FRACTIONS

 *H2              1.00000  1.00000  1.00000  1.00000  1.00000  1.00000  1.00000  1.00000

  * THERMODYNAMIC PROPERTIES FITTED TO 20000.K

 NOTE. WEIGHT FRACTION OF FUEL IN TOTAL FUELS AND OF OXIDANT IN TOTAL OXIDANTS









               THERMODYNAMIC EQUILIBRIUM PROPERTIES AT ASSIGNED

                           TEMPERATURE AND PRESSURE

 CASE =                

             REACTANT                    WT FRACTION      ENERGY      TEMP
                                          (SEE NOTE)     KJ/KG-MOL      K  
 FUEL        H2                           1.0000000         0.000      0.000
 OXIDANT     H2                           1.0000000         0.000      0.000

 O/F=    1.00000  %FUEL= 50.000000  R,EQ.RATIO= 0.000000  PHI,EQ.RATIO=-1.000000

 THERMODYNAMIC PROPERTIES

 P, BAR            225.00   225.00   225.00   225.00   225.00   225.00   225.00   225.00
 T, K             1300.00  1310.00  1320.00  1330.00  1340.00  1350.00  1360.00  1370.00
 RHO, KG/CU M    4.1963 0 4.1643 0 4.1327 0 4.1017 0 4.0711 0 4.0409 0 4.0112 0 3.9819 0
 H, KJ/KG         14839.4  14995.3  15151.5  15308.0  15464.6  15621.5  15778.6  15935.9
 U, KJ/KG         9477.53  9592.27  9707.23  9822.40  9937.80  10053.4  10169.3  10285.3
 G, KJ/KG        -68514.0 -69155.8 -69798.8 -70442.9 -71088.3 -71734.8 -72382.4 -73031.2
 S, KJ/(KG)(K)    64.1180  64.2375  64.3563  64.4744  64.5917  64.7083  64.8243  64.9395

 M, (1/n)           2.016    2.016    2.016    2.016    2.016    2.016    2.016    2.016
 (dLV/dLP)t      -1.00000 -1.00000 -1.00000 -1.00000 -1.00000 -1.00000 -1.00000 -1.00000
 (dLV/dLT)p        1.0000   1.0000   1.0000   1.0000   1.0000   1.0000   1.0000   1.0000
 Cp, KJ/(KG)(K)   15.5871  15.6092  15.6312  15.6533  15.6754  15.6975  15.7196  15.7417
 GAMMAs            1.3598   1.3591   1.3585   1.3578   1.3571   1.3564   1.3557   1.3550
 SON VEL,M/SEC     2700.2   2709.9   2719.5   2729.1   2738.7   2748.2   2757.7   2767.1

 TRANSPORT PROPERTIES (GASES ONLY)
   CONDUCTIVITY IN UNITS OF MILLIWATTS/(CM)(K)

 VISC,MILLIPOISE  0.24682  0.24814  0.24945  0.25076  0.25207  0.25338  0.25468  0.25598

  WITH EQUILIBRIUM REACTIONS

 Cp, KJ/(KG)(K)   15.5871  15.6092  15.6312  15.6533  15.6754  15.6975  15.7196  15.7417
 CONDUCTIVITY      5.5063   5.5424   5.5786   5.6148   5.6511   5.6874   5.7237   5.7600
 PRANDTL NUMBER    0.6987   0.6988   0.6990   0.6991   0.6992   0.6993   0.6995   0.6996

  WITH FROZEN REACTIONS

 Cp, KJ/(KG)(K)   15.5870  15.6090  15.6310  15.6531  15.6752  15.6972  15.7193  15.7413
 CONDUCTIVITY      5.5062   5.5423   5.5785   5.6147   5.6509   5.6872   5.7235   5.7598
 PRANDTL NUMBER    0.6987   0.6988   0.6990   0.6991   0.6992   0.6993   0.6995   0.6996

 MASS FRACTIONS

 *H2              1.00000  1.00000  1.00000  1.00000  1.00000  1.00000  1.00000  1.00000

  * THERMODYNAMIC PROPERTIES FITTED TO 20000.K

 NOTE. WEIGHT FRACTION OF FUEL IN TOTAL FUELS AND OF OXIDANT IN TOTAL OXIDANTS









               THERMODYNAMIC EQUILIBRIUM PROPERTIES AT ASSIGNED

                           TEMPERATURE AND PRESSURE

 CASE =                

             REACTANT                    WT FRACTION      ENERGY      TEMP
                                          (SEE NOTE)     KJ/KG-MOL      K  
 FUEL        H2                           1.0000000         0.000      0.000
 OXIDANT     H2                           1.0000000         0.000      0.000

 O/F=    1.00000  %FUEL= 50.000000  R,EQ.RATIO= 0.000000  PHI,EQ.RATIO=-1.000000

 THERMODYNAMIC PROPERTIES

 P, BAR            225.00   225.00   250.00   250.00   250.00   250.00   250.00   250.00
 T, K             1380.00  1390.00  1250.00  1260.00  1270.00  1280.00  1290.00  1300.00
 RHO, KG/CU M    3.9531 0 3.9246 0 4.8491 0 4.8106 0 4.7727 0 4.7354 0 4.6987 0 4.6626 0
 H, KJ/KG         16093.4  16251.1  14062.8  14217.6  14372.7  14528.1  14683.6  14839.4
 U, KJ/KG         10401.6  10518.1  8907.15  9020.79  9134.65  9248.72  9363.02  9477.53
 G, KJ/KG        -73681.2 -74332.3 -64780.2 -65411.5 -66044.0 -66677.8 -67312.9 -67949.1
 S, KJ/(KG)(K)    65.0541  65.1680  63.0743  63.1977  63.3203  63.4421  63.5632  63.6834

 M, (1/n)           2.016    2.016    2.016    2.016    2.016    2.016    2.016    2.016
 (dLV/dLP)t      -1.00000 -1.00000 -1.00000 -1.00000 -1.00000 -1.00000 -1.00000 -1.00000
 (dLV/dLT)p        1.0000   1.0000   1.0000   1.0000   1.0000   1.0000   1.0000   1.0000
 Cp, KJ/(KG)(K)   15.7637  15.7858  15.4774  15.4993  15.5211  15.5431  15.5651  15.5871
 GAMMAs            1.3544   1.3537   1.3633   1.3626   1.3619   1.3612   1.3605   1.3598
 SON VEL,M/SEC     2776.5   2785.8   2651.2   2661.1   2670.9   2680.7   2690.5   2700.2

 TRANSPORT PROPERTIES (GASES ONLY)
   CONDUCTIVITY IN UNITS OF MILLIWATTS/(CM)(K)

 VISC,MILLIPOISE  0.25728  0.25857  0.24020  0.24153  0.24286  0.24418  0.24551  0.24682

  WITH EQUILIBRIUM REACTIONS

 Cp, KJ/(KG)(K)   15.7637  15.7858  15.4774  15.4993  15.5211  15.5431  15.5651  15.5871
 CONDUCTIVITY      5.7964   5.8328   5.3260   5.3620   5.3980   5.4340   5.4701   5.5062
 PRANDTL NUMBER    0.6997   0.6998   0.6980   0.6982   0.6983   0.6984   0.6986   0.6987

  WITH FROZEN REACTIONS

 Cp, KJ/(KG)(K)   15.7634  15.7854  15.4774  15.4992  15.5211  15.5430  15.5650  15.5870
 CONDUCTIVITY      5.7961   5.8325   5.3260   5.3619   5.3979   5.4340   5.4701   5.5062
 PRANDTL NUMBER    0.6997   0.6998   0.6980   0.6982   0.6983   0.6984   0.6986   0.6987

 MASS FRACTIONS

 *H2              1.00000  1.00000  1.00000  1.00000  1.00000  1.00000  1.00000  1.00000

  * THERMODYNAMIC PROPERTIES FITTED TO 20000.K

 NOTE. WEIGHT FRACTION OF FUEL IN TOTAL FUELS AND OF OXIDANT IN TOTAL OXIDANTS









               THERMODYNAMIC EQUILIBRIUM PROPERTIES AT ASSIGNED

                           TEMPERATURE AND PRESSURE

 CASE =                

             REACTANT                    WT FRACTION      ENERGY      TEMP
                                          (SEE NOTE)     KJ/KG-MOL      K  
 FUEL        H2                           1.0000000         0.000      0.000
 OXIDANT     H2                           1.0000000         0.000      0.000

 O/F=    1.00000  %FUEL= 50.000000  R,EQ.RATIO= 0.000000  PHI,EQ.RATIO=-1.000000

 THERMODYNAMIC PROPERTIES

 P, BAR            250.00   250.00   250.00   250.00   250.00   250.00   250.00   250.00
 T, K             1310.00  1320.00  1330.00  1340.00  1350.00  1360.00  1370.00  1380.00
 RHO, KG/CU M    4.6270 0 4.5919 0 4.5574 0 4.5234 0 4.4899 0 4.4569 0 4.4244 0 4.3923 0
 H, KJ/KG         14995.3  15151.5  15308.0  15464.6  15621.5  15778.6  15935.9  16093.4
 U, KJ/KG         9592.27  9707.23  9822.40  9937.80  10053.4  10169.3  10285.3  10401.6
 G, KJ/KG        -68586.5 -69225.2 -69865.0 -70505.9 -71148.1 -71791.4 -72435.9 -73081.5
 S, KJ/(KG)(K)    63.8030  63.9217  64.0398  64.1571  64.2738  64.3897  64.5049  64.6195

 M, (1/n)           2.016    2.016    2.016    2.016    2.016    2.016    2.016    2.016
 (dLV/dLP)t      -1.00000 -1.00000 -1.00000 -1.00000 -1.00000 -1.00000 -1.00000 -1.00000
 (dLV/dLT)p        1.0000   1.0000   1.0000   1.0000   1.0000   1.0000   1.0000   1.0000
 Cp, KJ/(KG)(K)   15.6091  15.6312  15.6533  15.6754  15.6975  15.7196  15.7416  15.7637
 GAMMAs            1.3591   1.3585   1.3578   1.3571   1.3564   1.3557   1.3550   1.3544
 SON VEL,M/SEC     2709.9   2719.5   2729.1   2738.7   2748.2   2757.7   2767.1   2776.5

 TRANSPORT PROPERTIES (GASES ONLY)
   CONDUCTIVITY IN UNITS OF MILLIWATTS/(CM)(K)

 VISC,MILLIPOISE  0.24814  0.24945  0.25076  0.25207  0.25338  0.25468  0.25598  0.25728

  WITH EQUILIBRIUM REACTIONS

 Cp, KJ/(KG)(K)   15.6091  15.6312  15.6533  15.6754  15.6975  15.7196  15.7416  15.7637
 CONDUCTIVITY      5.5424   5.5786   5.6148   5.6511   5.6873   5.7237   5.7600   5.7964
 PRANDTL NUMBER    0.6988   0.6990   0.6991   0.6992   0.6993   0.6995   0.6996   0.6997

  WITH FROZEN REACTIONS

 Cp, KJ/(KG)(K)   15.6090  15.6310  15.6531  15.6752  15.6972  15.7193  15.7413  15.7634
 CONDUCTIVITY      5.5423   5.5785   5.6147   5.6509   5.6872   5.7235   5.7598   5.7961
 PRANDTL NUMBER    0.6988   0.6990   0.6991   0.6992   0.6993   0.6995   0.6996   0.6997

 MASS FRACTIONS

 *H2              1.00000  1.00000  1.00000  1.00000  1.00000  1.00000  1.00000  1.00000

  * THERMODYNAMIC PROPERTIES FITTED TO 20000.K

 NOTE. WEIGHT FRACTION OF FUEL IN TOTAL FUELS AND OF OXIDANT IN TOTAL OXIDANTS









               THERMODYNAMIC EQUILIBRIUM PROPERTIES AT ASSIGNED

                           TEMPERATURE AND PRESSURE

 CASE =                

             REACTANT                    WT FRACTION      ENERGY      TEMP
                                          (SEE NOTE)     KJ/KG-MOL      K  
 FUEL        H2                           1.0000000         0.000      0.000
 OXIDANT     H2                           1.0000000         0.000      0.000

 O/F=    1.00000  %FUEL= 50.000000  R,EQ.RATIO= 0.000000  PHI,EQ.RATIO=-1.000000

 THERMODYNAMIC PROPERTIES

 P, BAR            250.00
 T, K             1390.00
 RHO, KG/CU M    4.3607 0
 H, KJ/KG         16251.1
 U, KJ/KG         10518.1
 G, KJ/KG        -73728.3
 S, KJ/(KG)(K)    64.7334

 M, (1/n)           2.016
 (dLV/dLP)t      -1.00000
 (dLV/dLT)p        1.0000
 Cp, KJ/(KG)(K)   15.7858
 GAMMAs            1.3537
 SON VEL,M/SEC     2785.8

 TRANSPORT PROPERTIES (GASES ONLY)
   CONDUCTIVITY IN UNITS OF MILLIWATTS/(CM)(K)

 VISC,MILLIPOISE  0.25857

  WITH EQUILIBRIUM REACTIONS

 Cp, KJ/(KG)(K)   15.7858
 CONDUCTIVITY      5.8328
 PRANDTL NUMBER    0.6998

  WITH FROZEN REACTIONS

 Cp, KJ/(KG)(K)   15.7854
 CONDUCTIVITY      5.8325
 PRANDTL NUMBER    0.6998

 MASS FRACTIONS

 *H2              1.00000

  * THERMODYNAMIC PROPERTIES FITTED TO 20000.K

 NOTE. WEIGHT FRACTION OF FUEL IN TOTAL FUELS AND OF OXIDANT IN TOTAL OXIDANTS



  
