
 *******************************************************************************

         NASA-GLENN CHEMICAL EQUILIBRIUM PROGRAM CEA2, MAY 21, 2004
                   BY  BONNIE MCBRIDE AND SANFORD GORDON
      REFS: NASA RP-1311, PART I, 1994 AND NASA RP-1311, PART II, 1996

 *******************************************************************************



  prob tp ions
  p,bar= 2.5,2.8,3.1,3.5,3.9,4.4,4.9,5.4,6.0,6.7,7.4,8.25,9.1,10.0,11.0
  t,k= 3500,3510,3520,3530,3540,3550,3560,3570,3580,3590,3600,3610,3620,3630,3640
  
  
  reac
  fuel H2                wt%=100.0000
  oxid H2                wt%=100.0000
  
  output short
  
  output massf
  
  output siunits
  
  output transport
  
 end





               THERMODYNAMIC EQUILIBRIUM PROPERTIES AT ASSIGNED

                           TEMPERATURE AND PRESSURE

 CASE =                

             REACTANT                    WT FRACTION      ENERGY      TEMP
                                          (SEE NOTE)     KJ/KG-MOL      K  
 FUEL        H2                           1.0000000         0.000      0.000
 OXIDANT     H2                           1.0000000         0.000      0.000

 O/F=    1.00000  %FUEL= 50.000000  R,EQ.RATIO= 0.000000  PHI,EQ.RATIO=-1.000000

 THERMODYNAMIC PROPERTIES

 P, BAR            2.5000   2.5000   2.5000   2.5000   2.5000   2.5000   2.5000   2.5000
 T, K             3500.00  3510.00  3520.00  3530.00  3540.00  3550.00  3560.00  3570.00
 RHO, KG/CU M    1.4629-2 1.4537-2 1.4446-2 1.4355-2 1.4264-2 1.4173-2 1.4082-2 1.3992-2
 H, KJ/KG         95435.6  96556.1  97690.5  98838.8 100000.8 101176.7 102366.3 103569.7
 U, KJ/KG         78346.2  79359.2  80384.9  81423.2  82474.2  83537.7  84613.8  85702.4
 G, KJ/KG       -301117.4-302250.6-303388.3-304529.3-305673.7-306821.3-307972.2-309126.6
 S, KJ/(KG)(K)   113.3009 113.6201 113.9428 114.2686 114.5973 114.9290 115.2636 115.6012

 M, (1/n)           1.703    1.697    1.691    1.685    1.679    1.673    1.667    1.661
 (dLV/dLP)t      -1.07501 -1.07629 -1.07757 -1.07884 -1.08012 -1.08139 -1.08267 -1.08394
 (dLV/dLT)p        2.1898   2.2067   2.2234   2.2402   2.2568   2.2733   2.2897   2.3060
 Cp, KJ/(KG)(K)  111.3760 112.7550 114.1352 115.5157 116.8958 118.2748 119.6519 121.0262
 GAMMAs            1.1564   1.1565   1.1566   1.1567   1.1569   1.1570   1.1572   1.1574
 SON VEL,M/SEC     4445.4   4459.6   4473.9   4488.3   4502.9   4517.6   4532.4   4547.4

 TRANSPORT PROPERTIES (GASES ONLY)
   CONDUCTIVITY IN UNITS OF MILLIWATTS/(CM)(K)

 VISC,MILLIPOISE  0.58111  0.58306  0.58499  0.58691  0.58880  0.59067  0.59252  0.59435

  WITH EQUILIBRIUM REACTIONS

 Cp, KJ/(KG)(K)  111.3760 112.7550 114.1352 115.5157 116.8958 118.2748 119.6519 121.0262
 CONDUCTIVITY    130.0566 131.6925 133.3214 134.9414 136.5517 138.1509 139.7381 141.3121
 PRANDTL NUMBER    0.4976   0.4992   0.5008   0.5024   0.5040   0.5057   0.5074   0.5090

  WITH FROZEN REACTIONS

 Cp, KJ/(KG)(K)   19.2306  19.2455  19.2604  19.2753  19.2903  19.3052  19.3201  19.3350
 CONDUCTIVITY     15.9680  16.0253  16.0825  16.1391  16.1950  16.2501  16.3044  16.3579
 PRANDTL NUMBER    0.6998   0.7002   0.7006   0.7010   0.7013   0.7017   0.7021   0.7025

 MASS FRACTIONS

 *H               0.18382  0.18788  0.19199  0.19616  0.20040  0.20469  0.20904  0.21345
 *H2              0.81618  0.81212  0.80801  0.80384  0.79960  0.79531  0.79096  0.78655

  * THERMODYNAMIC PROPERTIES FITTED TO 20000.K

 NOTE. WEIGHT FRACTION OF FUEL IN TOTAL FUELS AND OF OXIDANT IN TOTAL OXIDANTS









               THERMODYNAMIC EQUILIBRIUM PROPERTIES AT ASSIGNED

                           TEMPERATURE AND PRESSURE

 CASE =                

             REACTANT                    WT FRACTION      ENERGY      TEMP
                                          (SEE NOTE)     KJ/KG-MOL      K  
 FUEL        H2                           1.0000000         0.000      0.000
 OXIDANT     H2                           1.0000000         0.000      0.000

 O/F=    1.00000  %FUEL= 50.000000  R,EQ.RATIO= 0.000000  PHI,EQ.RATIO=-1.000000

 THERMODYNAMIC PROPERTIES

 P, BAR            2.5000   2.5000   2.5000   2.5000   2.5000   2.5000   2.5000   2.8000
 T, K             3580.00  3590.00  3600.00  3610.00  3620.00  3630.00  3640.00  3500.00
 RHO, KG/CU M    1.3902-2 1.3812-2 1.3722-2 1.3632-2 1.3543-2 1.3454-2 1.3365-2 1.6521-2
 H, KJ/KG        104786.8 106017.7 107262.1 108520.1 109791.7 111076.7 112375.0  93189.0
 U, KJ/KG         86803.4  87917.0  89042.9  90181.2  91331.7  92494.4  93669.3  76241.2
 G, KJ/KG       -310284.3-311445.4-312610.0-313778.0-314949.6-316124.7-317303.3-299187.3
 S, KJ/(KG)(K)   115.9417 116.2850 116.6311 116.9801 117.3318 117.6863 118.0435 112.1075

 M, (1/n)           1.655    1.649    1.643    1.637    1.630    1.624    1.618    1.717
 (dLV/dLP)t      -1.08521 -1.08648 -1.08774 -1.08900 -1.09025 -1.09149 -1.09273 -1.07187
 (dLV/dLT)p        2.3221   2.3382   2.3540   2.3697   2.3852   2.4005   2.4156   2.1399
 Cp, KJ/(KG)(K)  122.3971 123.7635 125.1246 126.4796 127.8275 129.1674 130.4984 106.7580
 GAMMAs            1.1575   1.1577   1.1579   1.1581   1.1584   1.1586   1.1588   1.1572
 SON VEL,M/SEC     4562.5   4577.7   4593.1   4608.6   4624.2   4640.0   4655.8   4428.5

 TRANSPORT PROPERTIES (GASES ONLY)
   CONDUCTIVITY IN UNITS OF MILLIWATTS/(CM)(K)

 VISC,MILLIPOISE  0.59616  0.59794  0.59970  0.60143  0.60313  0.60481  0.60646  0.57960

  WITH EQUILIBRIUM REACTIONS

 Cp, KJ/(KG)(K)  122.3971 123.7635 125.1246 126.4796 127.8275 129.1674 130.4984 106.7580
 CONDUCTIVITY    142.8718 144.4161 145.9437 147.4535 148.9444 150.4151 151.8645 125.2253
 PRANDTL NUMBER    0.5107   0.5124   0.5142   0.5159   0.5176   0.5194   0.5211   0.4941

  WITH FROZEN REACTIONS

 Cp, KJ/(KG)(K)   19.3499  19.3648  19.3797  19.3946  19.4095  19.4244  19.4392  19.2139
 CONDUCTIVITY     16.4106  16.4625  16.5135  16.5635  16.6127  16.6610  16.7083  15.9277
 PRANDTL NUMBER    0.7029   0.7034   0.7038   0.7042   0.7047   0.7051   0.7056   0.6992

 MASS FRACTIONS

 *H               0.21792  0.22244  0.22703  0.23167  0.23637  0.24113  0.24595  0.17401
 *H2              0.78208  0.77756  0.77297  0.76833  0.76363  0.75887  0.75405  0.82599

  * THERMODYNAMIC PROPERTIES FITTED TO 20000.K

 NOTE. WEIGHT FRACTION OF FUEL IN TOTAL FUELS AND OF OXIDANT IN TOTAL OXIDANTS









               THERMODYNAMIC EQUILIBRIUM PROPERTIES AT ASSIGNED

                           TEMPERATURE AND PRESSURE

 CASE =                

             REACTANT                    WT FRACTION      ENERGY      TEMP
                                          (SEE NOTE)     KJ/KG-MOL      K  
 FUEL        H2                           1.0000000         0.000      0.000
 OXIDANT     H2                           1.0000000         0.000      0.000

 O/F=    1.00000  %FUEL= 50.000000  R,EQ.RATIO= 0.000000  PHI,EQ.RATIO=-1.000000

 THERMODYNAMIC PROPERTIES

 P, BAR            2.8000   2.8000   2.8000   2.8000   2.8000   2.8000   2.8000   2.8000
 T, K             3510.00  3520.00  3530.00  3540.00  3550.00  3560.00  3570.00  3580.00
 RHO, KG/CU M    1.6420-2 1.6320-2 1.6219-2 1.6118-2 1.6018-2 1.5918-2 1.5818-2 1.5718-2
 H, KJ/KG         94263.2  95350.8  96451.7  97566.0  98693.7  99834.8 100989.2 102157.1
 U, KJ/KG         77211.3  78193.5  79187.9  80194.6  81213.4  82244.5  83287.7  84343.1
 G, KJ/KG       -300309.8-301435.5-302564.3-303696.2-304831.3-305969.6-307111.2-308255.9
 S, KJ/(KG)(K)   112.4140 112.7234 113.0357 113.3509 113.6690 113.9900 114.3138 114.6405

 M, (1/n)           1.711    1.706    1.700    1.694    1.689    1.683    1.677    1.671
 (dLV/dLP)t      -1.07311 -1.07437 -1.07562 -1.07688 -1.07813 -1.07939 -1.08065 -1.08191
 (dLV/dLT)p        2.1564   2.1730   2.1895   2.2059   2.2223   2.2386   2.2548   2.2709
 Cp, KJ/(KG)(K)  108.0903 109.4251 110.7617 112.0996 113.4380 114.7762 116.1136 117.4495
 GAMMAs            1.1573   1.1574   1.1575   1.1576   1.1577   1.1579   1.1580   1.1582
 SON VEL,M/SEC     4442.2   4456.1   4470.2   4484.3   4498.6   4513.0   4527.5   4542.2

 TRANSPORT PROPERTIES (GASES ONLY)
   CONDUCTIVITY IN UNITS OF MILLIWATTS/(CM)(K)

 VISC,MILLIPOISE  0.58158  0.58355  0.58550  0.58744  0.58936  0.59126  0.59314  0.59500

  WITH EQUILIBRIUM REACTIONS

 Cp, KJ/(KG)(K)  108.0903 109.4251 110.7617 112.0996 113.4380 114.7762 116.1136 117.4495
 CONDUCTIVITY    126.8398 128.4491 130.0524 131.6486 133.2367 134.8157 136.3847 137.9424
 PRANDTL NUMBER    0.4956   0.4971   0.4987   0.5002   0.5018   0.5034   0.5050   0.5066

  WITH FROZEN REACTIONS

 Cp, KJ/(KG)(K)   19.2285  19.2432  19.2579  19.2725  19.2872  19.3019  19.3166  19.3312
 CONDUCTIVITY     15.9870  16.0458  16.1040  16.1615  16.2183  16.2744  16.3298  16.3844
 PRANDTL NUMBER    0.6995   0.6998   0.7002   0.7005   0.7009   0.7012   0.7016   0.7020

 MASS FRACTIONS

 *H               0.17786  0.18177  0.18574  0.18976  0.19385  0.19799  0.20218  0.20644
 *H2              0.82214  0.81823  0.81426  0.81024  0.80615  0.80201  0.79782  0.79356

  * THERMODYNAMIC PROPERTIES FITTED TO 20000.K

 NOTE. WEIGHT FRACTION OF FUEL IN TOTAL FUELS AND OF OXIDANT IN TOTAL OXIDANTS









               THERMODYNAMIC EQUILIBRIUM PROPERTIES AT ASSIGNED

                           TEMPERATURE AND PRESSURE

 CASE =                

             REACTANT                    WT FRACTION      ENERGY      TEMP
                                          (SEE NOTE)     KJ/KG-MOL      K  
 FUEL        H2                           1.0000000         0.000      0.000
 OXIDANT     H2                           1.0000000         0.000      0.000

 O/F=    1.00000  %FUEL= 50.000000  R,EQ.RATIO= 0.000000  PHI,EQ.RATIO=-1.000000

 THERMODYNAMIC PROPERTIES

 P, BAR            2.8000   2.8000   2.8000   2.8000   2.8000   2.8000   3.1000   3.1000
 T, K             3590.00  3600.00  3610.00  3620.00  3630.00  3640.00  3500.00  3510.00
 RHO, KG/CU M    1.5618-2 1.5519-2 1.5420-2 1.5321-2 1.5222-2 1.5124-2 1.8423-2 1.8313-2
 H, KJ/KG        103338.2 104532.7 105740.5 106961.5 108195.7 109443.0  91267.7  92301.8
 U, KJ/KG         85410.7  86490.4  87582.2  88685.9  89801.7  90929.4  74441.0  75373.8
 G, KJ/KG       -309404.0-310555.3-311710.0-312868.1-314029.5-315194.4-297468.5-298580.6
 S, KJ/(KG)(K)   114.9700 115.3022 115.6373 115.9750 116.3155 116.6586 111.0675 111.3625

 M, (1/n)           1.665    1.659    1.653    1.647    1.641    1.635    1.729    1.724
 (dLV/dLP)t      -1.08317 -1.08442 -1.08567 -1.08692 -1.08816 -1.08940 -1.06909 -1.07032
 (dLV/dLT)p        2.2869   2.3027   2.3185   2.3341   2.3495   2.3648   2.0959   2.1122
 Cp, KJ/(KG)(K)  118.7831 120.1136 121.4402 122.7621 124.0786 125.3887 102.7670 104.0560
 GAMMAs            1.1583   1.1585   1.1587   1.1589   1.1591   1.1593   1.1580   1.1580
 SON VEL,M/SEC     4557.0   4571.9   4587.0   4602.1   4617.4   4632.9   4414.1   4427.5

 TRANSPORT PROPERTIES (GASES ONLY)
   CONDUCTIVITY IN UNITS OF MILLIWATTS/(CM)(K)

 VISC,MILLIPOISE  0.59684  0.59866  0.60045  0.60222  0.60397  0.60569  0.57816  0.58017

  WITH EQUILIBRIUM REACTIONS

 Cp, KJ/(KG)(K)  118.7831 120.1135 121.4402 122.7621 124.0786 125.3887 102.7670 104.0560
 CONDUCTIVITY    139.4880 141.0204 142.5383 144.0409 145.5269 146.9952 120.9732 122.5632
 PRANDTL NUMBER    0.5082   0.5099   0.5116   0.5133   0.5150   0.5167   0.4912   0.4926

  WITH FROZEN REACTIONS

 Cp, KJ/(KG)(K)   19.3459  19.3606  19.3752  19.3899  19.4045  19.4192  19.1995  19.2140
 CONDUCTIVITY     16.4382  16.4913  16.5435  16.5949  16.6454  16.6951  15.8893  15.9498
 PRANDTL NUMBER    0.7024   0.7028   0.7032   0.7037   0.7041   0.7045   0.6986   0.6989

 MASS FRACTIONS

 *H               0.21075  0.21512  0.21954  0.22402  0.22856  0.23316  0.16562  0.16930
 *H2              0.78925  0.78488  0.78046  0.77598  0.77144  0.76684  0.83438  0.83070

  * THERMODYNAMIC PROPERTIES FITTED TO 20000.K

 NOTE. WEIGHT FRACTION OF FUEL IN TOTAL FUELS AND OF OXIDANT IN TOTAL OXIDANTS









               THERMODYNAMIC EQUILIBRIUM PROPERTIES AT ASSIGNED

                           TEMPERATURE AND PRESSURE

 CASE =                

             REACTANT                    WT FRACTION      ENERGY      TEMP
                                          (SEE NOTE)     KJ/KG-MOL      K  
 FUEL        H2                           1.0000000         0.000      0.000
 OXIDANT     H2                           1.0000000         0.000      0.000

 O/F=    1.00000  %FUEL= 50.000000  R,EQ.RATIO= 0.000000  PHI,EQ.RATIO=-1.000000

 THERMODYNAMIC PROPERTIES

 P, BAR            3.1000   3.1000   3.1000   3.1000   3.1000   3.1000   3.1000   3.1000
 T, K             3520.00  3530.00  3540.00  3550.00  3560.00  3570.00  3580.00  3590.00
 RHO, KG/CU M    1.8203-2 1.8093-2 1.7983-2 1.7873-2 1.7764-2 1.7654-2 1.7545-2 1.7436-2
 H, KJ/KG         93348.8  94408.8  95481.7  96567.6  97666.5  98778.4  99903.4 101041.3
 U, KJ/KG         76318.4  77274.8  78243.1  79223.2  80215.2  81219.0  82234.7  83262.3
 G, KJ/KG       -299695.7-300813.8-301934.9-303059.1-304186.4-305316.7-306450.2-307586.9
 S, KJ/(KG)(K)   111.6604 111.9611 112.2646 112.5709 112.8800 113.1919 113.5066 113.8240

 M, (1/n)           1.719    1.713    1.707    1.702    1.696    1.690    1.685    1.679
 (dLV/dLP)t      -1.07155 -1.07278 -1.07401 -1.07525 -1.07649 -1.07773 -1.07897 -1.08022
 (dLV/dLT)p        2.1285   2.1448   2.1610   2.1772   2.1933   2.2093   2.2253   2.2412
 Cp, KJ/(KG)(K)  105.3485 106.6439 107.9417 109.2413 110.5421 111.8435 113.1449 114.4455
 GAMMAs            1.1581   1.1582   1.1583   1.1584   1.1585   1.1587   1.1588   1.1589
 SON VEL,M/SEC     4441.1   4454.7   4468.5   4482.4   4496.4   4510.6   4524.9   4539.3

 TRANSPORT PROPERTIES (GASES ONLY)
   CONDUCTIVITY IN UNITS OF MILLIWATTS/(CM)(K)

 VISC,MILLIPOISE  0.58217  0.58415  0.58612  0.58807  0.59001  0.59193  0.59383  0.59572

  WITH EQUILIBRIUM REACTIONS

 Cp, KJ/(KG)(K)  105.3485 106.6439 107.9417 109.2413 110.5421 111.8435 113.1449 114.4455
 CONDUCTIVITY    124.1502 125.7333 127.3115 128.8839 130.4496 132.0077 133.5572 135.0972
 PRANDTL NUMBER    0.4940   0.4955   0.4969   0.4984   0.5000   0.5015   0.5031   0.5047

  WITH FROZEN REACTIONS

 Cp, KJ/(KG)(K)   19.2284  19.2429  19.2574  19.2718  19.2863  19.3008  19.3152  19.3297
 CONDUCTIVITY     16.0097  16.0691  16.1279  16.1861  16.2436  16.3005  16.3566  16.4121
 PRANDTL NUMBER    0.6992   0.6995   0.6999   0.7002   0.7005   0.7009   0.7012   0.7016

 MASS FRACTIONS

 *H               0.17303  0.17682  0.18066  0.18456  0.18852  0.19253  0.19660  0.20072
 *H2              0.82697  0.82318  0.81934  0.81544  0.81148  0.80747  0.80340  0.79928

  * THERMODYNAMIC PROPERTIES FITTED TO 20000.K

 NOTE. WEIGHT FRACTION OF FUEL IN TOTAL FUELS AND OF OXIDANT IN TOTAL OXIDANTS









               THERMODYNAMIC EQUILIBRIUM PROPERTIES AT ASSIGNED

                           TEMPERATURE AND PRESSURE

 CASE =                

             REACTANT                    WT FRACTION      ENERGY      TEMP
                                          (SEE NOTE)     KJ/KG-MOL      K  
 FUEL        H2                           1.0000000         0.000      0.000
 OXIDANT     H2                           1.0000000         0.000      0.000

 O/F=    1.00000  %FUEL= 50.000000  R,EQ.RATIO= 0.000000  PHI,EQ.RATIO=-1.000000

 THERMODYNAMIC PROPERTIES

 P, BAR            3.1000   3.1000   3.1000   3.1000   3.1000   3.5000   3.5000   3.5000
 T, K             3600.00  3610.00  3620.00  3630.00  3640.00  3500.00  3510.00  3520.00
 RHO, KG/CU M    1.7327-2 1.7219-2 1.7111-2 1.7003-2 1.6895-2 2.0971-2 2.0849-2 2.0727-2
 H, KJ/KG        102192.3 103356.2 104533.1 105722.9 106925.6  89091.1  90079.3  91079.9
 U, KJ/KG         84301.6  85352.8  86415.8  87490.5  88576.9  72401.7  73291.8  74193.3
 G, KJ/KG       -308726.7-309869.8-311016.1-312165.6-313318.5-295434.9-296534.8-297637.7
 S, KJ/(KG)(K)   114.1442 114.4670 114.7926 115.1208 115.4517 109.8646 110.1465 110.4311

 M, (1/n)           1.673    1.667    1.661    1.655    1.649    1.744    1.738    1.733
 (dLV/dLP)t      -1.08146 -1.08270 -1.08394 -1.08517 -1.08641 -1.06587 -1.06706 -1.06826
 (dLV/dLT)p        2.2570   2.2727   2.2883   2.3038   2.3191   2.0448   2.0607   2.0766
 Cp, KJ/(KG)(K)  115.7448 117.0419 118.3363 119.6270 120.9135  98.2019  99.4383 100.6791
 GAMMAs            1.1591   1.1593   1.1595   1.1596   1.1598   1.1590   1.1590   1.1591
 SON VEL,M/SEC     4553.8   4568.5   4583.3   4598.2   4613.2   4398.0   4411.0   4424.1

 TRANSPORT PROPERTIES (GASES ONLY)
   CONDUCTIVITY IN UNITS OF MILLIWATTS/(CM)(K)

 VISC,MILLIPOISE  0.59758  0.59943  0.60125  0.60305  0.60483  0.57638  0.57841  0.58043

  WITH EQUILIBRIUM REACTIONS

 Cp, KJ/(KG)(K)  115.7448 117.0419 118.3363 119.6270 120.9135  98.2019  99.4383 100.6791
 CONDUCTIVITY    136.6266 138.1444 139.6497 141.1414 142.6184 116.0214 117.5776 119.1329
 PRANDTL NUMBER    0.5062   0.5079   0.5095   0.5111   0.5128   0.4879   0.4892   0.4905

  WITH FROZEN REACTIONS

 Cp, KJ/(KG)(K)   19.3442  19.3586  19.3731  19.3875  19.4019  19.1833  19.1975  19.2117
 CONDUCTIVITY     16.4668  16.5208  16.5740  16.6264  16.6780  15.8406  15.9021  15.9633
 PRANDTL NUMBER    0.7020   0.7024   0.7028   0.7032   0.7036   0.6980   0.6983   0.6985

 MASS FRACTIONS

 *H               0.20490  0.20914  0.21343  0.21777  0.22218  0.15611  0.15959  0.16312
 *H2              0.79510  0.79086  0.78657  0.78223  0.77782  0.84389  0.84041  0.83688

  * THERMODYNAMIC PROPERTIES FITTED TO 20000.K

 NOTE. WEIGHT FRACTION OF FUEL IN TOTAL FUELS AND OF OXIDANT IN TOTAL OXIDANTS









               THERMODYNAMIC EQUILIBRIUM PROPERTIES AT ASSIGNED

                           TEMPERATURE AND PRESSURE

 CASE =                

             REACTANT                    WT FRACTION      ENERGY      TEMP
                                          (SEE NOTE)     KJ/KG-MOL      K  
 FUEL        H2                           1.0000000         0.000      0.000
 OXIDANT     H2                           1.0000000         0.000      0.000

 O/F=    1.00000  %FUEL= 50.000000  R,EQ.RATIO= 0.000000  PHI,EQ.RATIO=-1.000000

 THERMODYNAMIC PROPERTIES

 P, BAR            3.5000   3.5000   3.5000   3.5000   3.5000   3.5000   3.5000   3.5000
 T, K             3530.00  3540.00  3550.00  3560.00  3570.00  3580.00  3590.00  3600.00
 RHO, KG/CU M    2.0604-2 2.0482-2 2.0360-2 2.0239-2 2.0117-2 1.9996-2 1.9874-2 1.9753-2
 H, KJ/KG         92092.9  93118.3  94156.3  95206.8  96269.9  97345.5  98433.7  99534.5
 U, KJ/KG         75106.2  76030.4  76966.1  77913.2  78871.7  79841.7  80823.1  81816.1
 G, KJ/KG       -298743.5-299852.1-300963.6-302078.1-303195.6-304316.0-305439.5-306566.0
 S, KJ/(KG)(K)   110.7185 111.0086 111.3014 111.5969 111.8951 112.1960 112.4995 112.8057

 M, (1/n)           1.728    1.722    1.717    1.712    1.706    1.701    1.695    1.689
 (dLV/dLP)t      -1.06946 -1.07066 -1.07187 -1.07309 -1.07430 -1.07552 -1.07675 -1.07797
 (dLV/dLT)p        2.0926   2.1085   2.1243   2.1402   2.1560   2.1718   2.1875   2.2032
 Cp, KJ/(KG)(K)  101.9240 103.1723 104.4237 105.6776 106.9335 108.1908 109.4489 110.7074
 GAMMAs            1.1591   1.1592   1.1593   1.1594   1.1595   1.1596   1.1597   1.1599
 SON VEL,M/SEC     4437.3   4450.6   4464.1   4477.7   4491.4   4505.3   4519.2   4533.3

 TRANSPORT PROPERTIES (GASES ONLY)
   CONDUCTIVITY IN UNITS OF MILLIWATTS/(CM)(K)

 VISC,MILLIPOISE  0.58244  0.58444  0.58643  0.58841  0.59037  0.59231  0.59424  0.59615

  WITH EQUILIBRIUM REACTIONS

 Cp, KJ/(KG)(K)  101.9240 103.1723 104.4237 105.6776 106.9335 108.1908 109.4489 110.7074
 CONDUCTIVITY    120.6865 122.2375 123.7853 125.3288 126.8673 128.3999 129.9258 131.4439
 PRANDTL NUMBER    0.4919   0.4933   0.4947   0.4961   0.4976   0.4991   0.5006   0.5021

  WITH FROZEN REACTIONS

 Cp, KJ/(KG)(K)   19.2260  19.2402  19.2544  19.2686  19.2829  19.2971  19.3113  19.3255
 CONDUCTIVITY     16.0239  16.0841  16.1437  16.2027  16.2611  16.3189  16.3761  16.4327
 PRANDTL NUMBER    0.6988   0.6991   0.6994   0.6997   0.7001   0.7004   0.7007   0.7011

 MASS FRACTIONS

 *H               0.16671  0.17034  0.17404  0.17778  0.18158  0.18543  0.18934  0.19330
 *H2              0.83329  0.82966  0.82596  0.82222  0.81842  0.81457  0.81066  0.80670

  * THERMODYNAMIC PROPERTIES FITTED TO 20000.K

 NOTE. WEIGHT FRACTION OF FUEL IN TOTAL FUELS AND OF OXIDANT IN TOTAL OXIDANTS









               THERMODYNAMIC EQUILIBRIUM PROPERTIES AT ASSIGNED

                           TEMPERATURE AND PRESSURE

 CASE =                

             REACTANT                    WT FRACTION      ENERGY      TEMP
                                          (SEE NOTE)     KJ/KG-MOL      K  
 FUEL        H2                           1.0000000         0.000      0.000
 OXIDANT     H2                           1.0000000         0.000      0.000

 O/F=    1.00000  %FUEL= 50.000000  R,EQ.RATIO= 0.000000  PHI,EQ.RATIO=-1.000000

 THERMODYNAMIC PROPERTIES

 P, BAR            3.5000   3.5000   3.5000   3.5000   3.9000   3.9000   3.9000   3.9000
 T, K             3610.00  3620.00  3630.00  3640.00  3500.00  3510.00  3520.00  3530.00
 RHO, KG/CU M    1.9633-2 1.9512-2 1.9392-2 1.9272-2 2.3532-2 2.3397-2 2.3263-2 2.3129-2
 H, KJ/KG        100647.8 101773.8 102912.3 104063.3  87250.8  88199.8  89160.8  90133.7
 U, KJ/KG         82820.4  83836.2  84863.4  85902.1  70677.4  71531.2  72395.9  73271.6
 G, KJ/KG       -307695.6-308828.3-309964.2-311103.1-293635.1-294724.7-295817.0-296912.1
 S, KJ/(KG)(K)   113.1145 113.4260 113.7401 114.0567 108.8246 109.0953 109.3687 109.6447

 M, (1/n)           1.684    1.678    1.672    1.666    1.756    1.751    1.746    1.741
 (dLV/dLP)t      -1.07919 -1.08042 -1.08164 -1.08286 -1.06308 -1.06423 -1.06540 -1.06657
 (dLV/dLT)p        2.2188   2.2342   2.2496   2.2649   2.0004   2.0160   2.0315   2.0471
 Cp, KJ/(KG)(K)  111.9655 113.2226 114.4782 115.7315  94.3079  95.4970  96.6912  97.8902
 GAMMAs            1.1600   1.1602   1.1603   1.1605   1.1599   1.1599   1.1600   1.1600
 SON VEL,M/SEC     4547.5   4561.8   4576.3   4590.9   4384.5   4397.1   4409.8   4422.7

 TRANSPORT PROPERTIES (GASES ONLY)
   CONDUCTIVITY IN UNITS OF MILLIWATTS/(CM)(K)

 VISC,MILLIPOISE  0.59805  0.59992  0.60178  0.60362  0.57473  0.57678  0.57882  0.58085

  WITH EQUILIBRIUM REACTIONS

 Cp, KJ/(KG)(K)  111.9655 113.2226 114.4782 115.7315  94.3079  95.4970  96.6912  97.8901
 CONDUCTIVITY    132.9535 134.4536 135.9432 137.4215 111.7229 113.2454 114.7686 116.2918
 PRANDTL NUMBER    0.5036   0.5052   0.5068   0.5083   0.4851   0.4864   0.4876   0.4889

  WITH FROZEN REACTIONS

 Cp, KJ/(KG)(K)   19.3397  19.3539  19.3681  19.3823  19.1696  19.1836  19.1976  19.2116
 CONDUCTIVITY     16.4885  16.5437  16.5981  16.6518  15.7947  15.8571  15.9191  15.9807
 PRANDTL NUMBER    0.7015   0.7018   0.7022   0.7026   0.6975   0.6978   0.6980   0.6983

 MASS FRACTIONS

 *H               0.19732  0.20139  0.20551  0.20969  0.14808  0.15138  0.15474  0.15815
 *H2              0.80268  0.79861  0.79449  0.79031  0.85192  0.84862  0.84526  0.84185

  * THERMODYNAMIC PROPERTIES FITTED TO 20000.K

 NOTE. WEIGHT FRACTION OF FUEL IN TOTAL FUELS AND OF OXIDANT IN TOTAL OXIDANTS









               THERMODYNAMIC EQUILIBRIUM PROPERTIES AT ASSIGNED

                           TEMPERATURE AND PRESSURE

 CASE =                

             REACTANT                    WT FRACTION      ENERGY      TEMP
                                          (SEE NOTE)     KJ/KG-MOL      K  
 FUEL        H2                           1.0000000         0.000      0.000
 OXIDANT     H2                           1.0000000         0.000      0.000

 O/F=    1.00000  %FUEL= 50.000000  R,EQ.RATIO= 0.000000  PHI,EQ.RATIO=-1.000000

 THERMODYNAMIC PROPERTIES

 P, BAR            3.9000   3.9000   3.9000   3.9000   3.9000   3.9000   3.9000   3.9000
 T, K             3540.00  3550.00  3560.00  3570.00  3580.00  3590.00  3600.00  3610.00
 RHO, KG/CU M    2.2995-2 2.2861-2 2.2727-2 2.2593-2 2.2460-2 2.2327-2 2.2194-2 2.2061-2
 H, KJ/KG         91118.6  92115.6  93124.6  94145.8  95179.1  96224.6  97282.3  98352.2
 U, KJ/KG         74158.2  75055.8  75964.4  76884.2  77815.0  78756.8  79709.8  80673.9
 G, KJ/KG       -298009.9-299110.5-300214.0-301320.3-302429.5-303541.6-304656.6-305774.6
 S, KJ/(KG)(K)   109.9233 110.2045 110.4884 110.7748 111.0639 111.3555 111.6497 111.9465

 M, (1/n)           1.735    1.730    1.725    1.720    1.714    1.709    1.703    1.698
 (dLV/dLP)t      -1.06775 -1.06893 -1.07012 -1.07131 -1.07250 -1.07370 -1.07491 -1.07611
 (dLV/dLT)p        2.0627   2.0783   2.0939   2.1094   2.1250   2.1405   2.1559   2.1713
 Cp, KJ/(KG)(K)   99.0934 100.3006 101.5112 102.7248 103.9409 105.1590 106.3786 107.5992
 GAMMAs            1.1600   1.1601   1.1602   1.1603   1.1604   1.1605   1.1606   1.1607
 SON VEL,M/SEC     4435.6   4448.7   4462.0   4475.3   4488.7   4502.3   4516.0   4529.8

 TRANSPORT PROPERTIES (GASES ONLY)
   CONDUCTIVITY IN UNITS OF MILLIWATTS/(CM)(K)

 VISC,MILLIPOISE  0.58287  0.58488  0.58688  0.58887  0.59085  0.59281  0.59476  0.59669

  WITH EQUILIBRIUM REACTIONS

 Cp, KJ/(KG)(K)   99.0934 100.3006 101.5112 102.7248 103.9409 105.1590 106.3786 107.5992
 CONDUCTIVITY    117.8142 119.3352 120.8540 122.3698 123.8818 125.3892 126.8912 128.3870
 PRANDTL NUMBER    0.4903   0.4916   0.4930   0.4943   0.4957   0.4972   0.4986   0.5001

  WITH FROZEN REACTIONS

 Cp, KJ/(KG)(K)   19.2256  19.2396  19.2537  19.2677  19.2817  19.2957  19.3097  19.3237
 CONDUCTIVITY     16.0419  16.1026  16.1628  16.2224  16.2815  16.3401  16.3980  16.4554
 PRANDTL NUMBER    0.6986   0.6988   0.6991   0.6994   0.6997   0.7000   0.7004   0.7007

 MASS FRACTIONS

 *H               0.16161  0.16513  0.16869  0.17231  0.17598  0.17970  0.18347  0.18730
 *H2              0.83839  0.83487  0.83131  0.82769  0.82402  0.82030  0.81653  0.81270

  * THERMODYNAMIC PROPERTIES FITTED TO 20000.K

 NOTE. WEIGHT FRACTION OF FUEL IN TOTAL FUELS AND OF OXIDANT IN TOTAL OXIDANTS









               THERMODYNAMIC EQUILIBRIUM PROPERTIES AT ASSIGNED

                           TEMPERATURE AND PRESSURE

 CASE =                

             REACTANT                    WT FRACTION      ENERGY      TEMP
                                          (SEE NOTE)     KJ/KG-MOL      K  
 FUEL        H2                           1.0000000         0.000      0.000
 OXIDANT     H2                           1.0000000         0.000      0.000

 O/F=    1.00000  %FUEL= 50.000000  R,EQ.RATIO= 0.000000  PHI,EQ.RATIO=-1.000000

 THERMODYNAMIC PROPERTIES

 P, BAR            3.9000   3.9000   3.9000   4.4000   4.4000   4.4000   4.4000   4.4000
 T, K             3620.00  3630.00  3640.00  3500.00  3510.00  3520.00  3530.00  3540.00
 RHO, KG/CU M    2.1928-2 2.1796-2 2.1664-2 2.6746-2 2.6597-2 2.6448-2 2.6299-2 2.6151-2
 H, KJ/KG         99434.3 100528.6 101635.1  85306.2  86213.5  87132.2  88062.3  89003.9
 U, KJ/KG         81649.2  82635.5  83632.9  68855.4  69670.5  70495.9  71331.8  72178.3
 G, KJ/KG       -306895.6-308019.5-309146.5-291643.4-292721.6-293802.5-294886.0-295972.2
 S, KJ/(KG)(K)   112.2458 112.5477 112.8521 107.6999 107.9587 108.2201 108.4839 108.7503

 M, (1/n)           1.692    1.687    1.681    1.769    1.764    1.759    1.754    1.749
 (dLV/dLP)t      -1.07731 -1.07852 -1.07973 -1.06005 -1.06117 -1.06230 -1.06344 -1.06458
 (dLV/dLT)p        2.1867   2.2019   2.2171   1.9525   1.9676   1.9827   1.9978   2.0130
 Cp, KJ/(KG)(K)  108.8202 110.0410 111.2611  90.1608  91.2972  92.4393  93.5868  94.7393
 GAMMAs            1.1608   1.1610   1.1611   1.1610   1.1610   1.1610   1.1610   1.1611
 SON VEL,M/SEC     4543.8   4557.8   4572.0   4370.3   4382.5   4394.9   4407.3   4419.9

 TRANSPORT PROPERTIES (GASES ONLY)
   CONDUCTIVITY IN UNITS OF MILLIWATTS/(CM)(K)

 VISC,MILLIPOISE  0.59861  0.60051  0.60239  0.57285  0.57491  0.57696  0.57901  0.58105

  WITH EQUILIBRIUM REACTIONS

 Cp, KJ/(KG)(K)  108.8202 110.0410 111.2611  90.1608  91.2972  92.4393  93.5868  94.7393
 CONDUCTIVITY    129.8757 131.3564 132.8284 107.0690 108.5507 110.0346 111.5202 113.0067
 PRANDTL NUMBER    0.5016   0.5031   0.5046   0.4824   0.4835   0.4847   0.4859   0.4871

  WITH FROZEN REACTIONS

 Cp, KJ/(KG)(K)   19.3377  19.3517  19.3657  19.1551  19.1689  19.1827  19.1965  19.2103
 CONDUCTIVITY     16.5121  16.5681  16.6235  15.7414  15.8045  15.8674  15.9299  15.9920
 PRANDTL NUMBER    0.7010   0.7014   0.7018   0.6971   0.6973   0.6975   0.6977   0.6980

 MASS FRACTIONS

 *H               0.19118  0.19511  0.19909  0.13958  0.14271  0.14588  0.14911  0.15238
 *H2              0.80882  0.80489  0.80091  0.86042  0.85729  0.85412  0.85089  0.84762

  * THERMODYNAMIC PROPERTIES FITTED TO 20000.K

 NOTE. WEIGHT FRACTION OF FUEL IN TOTAL FUELS AND OF OXIDANT IN TOTAL OXIDANTS









               THERMODYNAMIC EQUILIBRIUM PROPERTIES AT ASSIGNED

                           TEMPERATURE AND PRESSURE

 CASE =                

             REACTANT                    WT FRACTION      ENERGY      TEMP
                                          (SEE NOTE)     KJ/KG-MOL      K  
 FUEL        H2                           1.0000000         0.000      0.000
 OXIDANT     H2                           1.0000000         0.000      0.000

 O/F=    1.00000  %FUEL= 50.000000  R,EQ.RATIO= 0.000000  PHI,EQ.RATIO=-1.000000

 THERMODYNAMIC PROPERTIES

 P, BAR            4.4000   4.4000   4.4000   4.4000   4.4000   4.4000   4.4000   4.4000
 T, K             3550.00  3560.00  3570.00  3580.00  3590.00  3600.00  3610.00  3620.00
 RHO, KG/CU M    2.6002-2 2.5853-2 2.5705-2 2.5557-2 2.5409-2 2.5261-2 2.5114-2 2.4966-2
 H, KJ/KG         89957.1  90921.9  91898.3  92886.3  93886.1  94897.6  95920.9  96955.9
 U, KJ/KG         73035.3  73902.9  74781.1  75669.9  76569.5  77479.7  78400.6  79332.3
 G, KJ/KG       -297061.0-298152.6-299246.9-300343.9-301443.7-302546.3-303651.7-304760.0
 S, KJ/(KG)(K)   109.0192 109.2906 109.5645 109.8408 110.1197 110.4011 110.6849 110.9712

 M, (1/n)           1.744    1.739    1.734    1.729    1.724    1.718    1.713    1.708
 (dLV/dLP)t      -1.06573 -1.06689 -1.06805 -1.06921 -1.07038 -1.07156 -1.07274 -1.07392
 (dLV/dLT)p        2.0282   2.0434   2.0587   2.0739   2.0891   2.1042   2.1194   2.1345
 Cp, KJ/(KG)(K)   95.8965  97.0579  98.2232  99.3920 100.5638 101.7382 102.9148 104.0931
 GAMMAs            1.1611   1.1612   1.1612   1.1613   1.1614   1.1615   1.1616   1.1617
 SON VEL,M/SEC     4432.6   4445.4   4458.3   4471.4   4484.5   4497.8   4511.2   4524.7

 TRANSPORT PROPERTIES (GASES ONLY)
   CONDUCTIVITY IN UNITS OF MILLIWATTS/(CM)(K)

 VISC,MILLIPOISE  0.58308  0.58510  0.58712  0.58912  0.59111  0.59309  0.59506  0.59701

  WITH EQUILIBRIUM REACTIONS

 Cp, KJ/(KG)(K)   95.8965  97.0579  98.2232  99.3920 100.5638 101.7382 102.9148 104.0931
 CONDUCTIVITY    114.4937 115.9802 117.4658 118.9496 120.4310 121.9092 123.3834 124.8530
 PRANDTL NUMBER    0.4884   0.4896   0.4909   0.4923   0.4936   0.4950   0.4963   0.4977

  WITH FROZEN REACTIONS

 Cp, KJ/(KG)(K)   19.2240  19.2378  19.2516  19.2654  19.2792  19.2930  19.3068  19.3205
 CONDUCTIVITY     16.0537  16.1149  16.1757  16.2361  16.2959  16.3553  16.4141  16.4723
 PRANDTL NUMBER    0.6982   0.6985   0.6988   0.6990   0.6993   0.6996   0.6999   0.7002

 MASS FRACTIONS

 *H               0.15570  0.15908  0.16250  0.16597  0.16949  0.17307  0.17669  0.18036
 *H2              0.84430  0.84092  0.83750  0.83403  0.83051  0.82693  0.82331  0.81964

  * THERMODYNAMIC PROPERTIES FITTED TO 20000.K

 NOTE. WEIGHT FRACTION OF FUEL IN TOTAL FUELS AND OF OXIDANT IN TOTAL OXIDANTS









               THERMODYNAMIC EQUILIBRIUM PROPERTIES AT ASSIGNED

                           TEMPERATURE AND PRESSURE

 CASE =                

             REACTANT                    WT FRACTION      ENERGY      TEMP
                                          (SEE NOTE)     KJ/KG-MOL      K  
 FUEL        H2                           1.0000000         0.000      0.000
 OXIDANT     H2                           1.0000000         0.000      0.000

 O/F=    1.00000  %FUEL= 50.000000  R,EQ.RATIO= 0.000000  PHI,EQ.RATIO=-1.000000

 THERMODYNAMIC PROPERTIES

 P, BAR            4.4000   4.4000   4.9000   4.9000   4.9000   4.9000   4.9000   4.9000
 T, K             3630.00  3640.00  3500.00  3510.00  3520.00  3530.00  3540.00  3550.00
 RHO, KG/CU M    2.4819-2 2.4672-2 2.9975-2 2.9811-2 2.9648-2 2.9484-2 2.9321-2 2.9158-2
 H, KJ/KG         98002.7  99061.4  83661.9  84533.6  85416.3  86309.9  87214.6  88130.4
 U, KJ/KG         80274.6  81227.7  67314.8  68096.8  68888.8  69690.9  70503.1  71325.4
 G, KJ/KG       -305871.2-306985.2-289878.4-290946.8-292017.8-293091.4-294167.4-295246.1
 S, KJ/(KG)(K)   111.2600 111.5513 106.7258 106.9745 107.2256 107.4791 107.7350 107.9934

 M, (1/n)           1.702    1.697    1.780    1.776    1.771    1.766    1.761    1.756
 (dLV/dLP)t      -1.07510 -1.07629 -1.05744 -1.05852 -1.05962 -1.06072 -1.06183 -1.06295
 (dLV/dLT)p        2.1496   2.1646   1.9110   1.9257   1.9404   1.9552   1.9700   1.9848
 Cp, KJ/(KG)(K)  105.2725 106.4526  86.6295  87.7193  88.8153  89.9170  91.0242  92.1366
 GAMMAs            1.1618   1.1619   1.1621   1.1620   1.1620   1.1620   1.1620   1.1620
 SON VEL,M/SEC     4538.3   4552.1   4358.5   4370.4   4382.4   4394.5   4406.7   4419.1

 TRANSPORT PROPERTIES (GASES ONLY)
   CONDUCTIVITY IN UNITS OF MILLIWATTS/(CM)(K)

 VISC,MILLIPOISE  0.59895  0.60088  0.57115  0.57321  0.57527  0.57732  0.57937  0.58142

  WITH EQUILIBRIUM REACTIONS

 Cp, KJ/(KG)(K)  105.2725 106.4526  86.6295  87.7193  88.8153  89.9170  91.0242  92.1366
 CONDUCTIVITY    126.3171 127.7749 103.0441 104.4871 105.9335 107.3829 108.8345 110.2879
 PRANDTL NUMBER    0.4992   0.5006   0.4802   0.4812   0.4823   0.4834   0.4846   0.4857

  WITH FROZEN REACTIONS

 Cp, KJ/(KG)(K)   19.3343  19.3481  19.1429  19.1565  19.1701  19.1836  19.1972  19.2108
 CONDUCTIVITY     16.5300  16.5870  15.6922  15.7559  15.8193  15.8824  15.9452  16.0076
 PRANDTL NUMBER    0.7006   0.7009   0.6967   0.6969   0.6971   0.6973   0.6975   0.6978

 MASS FRACTIONS

 *H               0.18409  0.18786  0.13240  0.13537  0.13839  0.14146  0.14457  0.14773
 *H2              0.81591  0.81214  0.86760  0.86463  0.86161  0.85854  0.85543  0.85227

  * THERMODYNAMIC PROPERTIES FITTED TO 20000.K

 NOTE. WEIGHT FRACTION OF FUEL IN TOTAL FUELS AND OF OXIDANT IN TOTAL OXIDANTS









               THERMODYNAMIC EQUILIBRIUM PROPERTIES AT ASSIGNED

                           TEMPERATURE AND PRESSURE

 CASE =                

             REACTANT                    WT FRACTION      ENERGY      TEMP
                                          (SEE NOTE)     KJ/KG-MOL      K  
 FUEL        H2                           1.0000000         0.000      0.000
 OXIDANT     H2                           1.0000000         0.000      0.000

 O/F=    1.00000  %FUEL= 50.000000  R,EQ.RATIO= 0.000000  PHI,EQ.RATIO=-1.000000

 THERMODYNAMIC PROPERTIES

 P, BAR            4.9000   4.9000   4.9000   4.9000   4.9000   4.9000   4.9000   4.9000
 T, K             3560.00  3570.00  3580.00  3590.00  3600.00  3610.00  3620.00  3630.00
 RHO, KG/CU M    2.8995-2 2.8832-2 2.8670-2 2.8507-2 2.8345-2 2.8183-2 2.8021-2 2.7860-2
 H, KJ/KG         89057.4  89995.5  90944.9  91905.6  92877.5  93860.9  94855.6  95861.6
 U, KJ/KG         72157.9  73000.6  73853.6  74716.9  75590.5  76474.4  77368.7  78273.4
 G, KJ/KG       -296327.3-297411.2-298497.7-299586.8-300678.7-301773.3-302870.6-303970.7
 S, KJ/(KG)(K)   108.2541 108.5173 108.7828 109.0508 109.3212 109.5939 109.8691 110.1466

 M, (1/n)           1.752    1.747    1.742    1.737    1.731    1.726    1.721    1.716
 (dLV/dLP)t      -1.06408 -1.06521 -1.06635 -1.06749 -1.06864 -1.06979 -1.07094 -1.07210
 (dLV/dLT)p        1.9996   2.0145   2.0294   2.0443   2.0592   2.0740   2.0889   2.1037
 Cp, KJ/(KG)(K)   93.2538  94.3755  95.5014  96.6310  97.7641  98.9001 100.0387 101.1794
 GAMMAs            1.1621   1.1621   1.1622   1.1622   1.1623   1.1624   1.1625   1.1626
 SON VEL,M/SEC     4431.5   4444.1   4456.8   4469.6   4482.5   4495.5   4508.6   4521.9

 TRANSPORT PROPERTIES (GASES ONLY)
   CONDUCTIVITY IN UNITS OF MILLIWATTS/(CM)(K)

 VISC,MILLIPOISE  0.58345  0.58548  0.58751  0.58952  0.59152  0.59351  0.59550  0.59747

  WITH EQUILIBRIUM REACTIONS

 Cp, KJ/(KG)(K)   93.2538  94.3755  95.5014  96.6310  97.7641  98.9001 100.0387 101.1794
 CONDUCTIVITY    111.7424 113.1973 114.6522 116.1062 117.5587 119.0092 120.4568 121.9008
 PRANDTL NUMBER    0.4869   0.4881   0.4894   0.4906   0.4919   0.4932   0.4946   0.4959

  WITH FROZEN REACTIONS

 Cp, KJ/(KG)(K)   19.2244  19.2380  19.2516  19.2652  19.2788  19.2924  19.3060  19.3196
 CONDUCTIVITY     16.0697  16.1314  16.1927  16.2535  16.3139  16.3738  16.4333  16.4922
 PRANDTL NUMBER    0.6980   0.6982   0.6985   0.6988   0.6990   0.6993   0.6996   0.6999

 MASS FRACTIONS

 *H               0.15094  0.15419  0.15750  0.16085  0.16425  0.16770  0.17120  0.17475
 *H2              0.84906  0.84581  0.84250  0.83915  0.83575  0.83230  0.82880  0.82525

  * THERMODYNAMIC PROPERTIES FITTED TO 20000.K

 NOTE. WEIGHT FRACTION OF FUEL IN TOTAL FUELS AND OF OXIDANT IN TOTAL OXIDANTS









               THERMODYNAMIC EQUILIBRIUM PROPERTIES AT ASSIGNED

                           TEMPERATURE AND PRESSURE

 CASE =                

             REACTANT                    WT FRACTION      ENERGY      TEMP
                                          (SEE NOTE)     KJ/KG-MOL      K  
 FUEL        H2                           1.0000000         0.000      0.000
 OXIDANT     H2                           1.0000000         0.000      0.000

 O/F=    1.00000  %FUEL= 50.000000  R,EQ.RATIO= 0.000000  PHI,EQ.RATIO=-1.000000

 THERMODYNAMIC PROPERTIES

 P, BAR            4.9000   5.4000   5.4000   5.4000   5.4000   5.4000   5.4000   5.4000
 T, K             3640.00  3500.00  3510.00  3520.00  3530.00  3540.00  3550.00  3560.00
 RHO, KG/CU M    2.7698-2 3.3215-2 3.3037-2 3.2859-2 3.2681-2 3.2504-2 3.2327-2 3.2149-2
 H, KJ/KG         96879.1  82247.8  83088.7  83940.3  84802.3  85675.1  86558.5  87452.6
 U, KJ/KG         79188.5  65989.8  66743.3  67506.4  68279.1  69061.6  69853.9  70656.0
 G, KJ/KG       -305073.5-288294.4-289354.3-290416.6-291481.3-292548.5-293618.2-294690.3
 S, KJ/(KG)(K)   110.4266 105.8692 106.1091 106.3514 106.5959 106.8428 107.0920 107.3435

 M, (1/n)           1.711    1.790    1.785    1.781    1.776    1.772    1.767    1.762
 (dLV/dLP)t      -1.07327 -1.05515 -1.05620 -1.05727 -1.05834 -1.05942 -1.06051 -1.06161
 (dLV/dLT)p        2.1185   1.8747   1.8890   1.9033   1.9177   1.9321   1.9466   1.9611
 Cp, KJ/(KG)(K)  102.3219  83.5755  84.6239  85.6787  86.7394  87.8060  88.8781  89.9555
 GAMMAs            1.1627   1.1630   1.1630   1.1630   1.1629   1.1629   1.1629   1.1629
 SON VEL,M/SEC     4535.2   4348.4   4360.0   4371.7   4383.6   4395.5   4407.5   4419.7

 TRANSPORT PROPERTIES (GASES ONLY)
   CONDUCTIVITY IN UNITS OF MILLIWATTS/(CM)(K)

 VISC,MILLIPOISE  0.59942  0.56959  0.57165  0.57372  0.57578  0.57783  0.57988  0.58193

  WITH EQUILIBRIUM REACTIONS

 Cp, KJ/(KG)(K)  102.3219  83.5755  84.6239  85.6786  86.7394  87.8060  88.8781  89.9555
 CONDUCTIVITY    123.3406  99.5169 100.9235 102.3345 103.7494 105.1677 106.5887 108.0120
 PRANDTL NUMBER    0.4973   0.4783   0.4793   0.4803   0.4814   0.4824   0.4835   0.4846

  WITH FROZEN REACTIONS

 Cp, KJ/(KG)(K)   19.3331  19.1324  19.1458  19.1592  19.1726  19.1860  19.1995  19.2129
 CONDUCTIVITY     16.5505  15.6468  15.7108  15.7746  15.8382  15.9015  15.9645  16.0271
 PRANDTL NUMBER    0.7002   0.6965   0.6966   0.6968   0.6970   0.6972   0.6974   0.6976

 MASS FRACTIONS

 *H               0.17834  0.12623  0.12906  0.13195  0.13487  0.13785  0.14087  0.14393
 *H2              0.82166  0.87377  0.87094  0.86805  0.86513  0.86215  0.85913  0.85607

  * THERMODYNAMIC PROPERTIES FITTED TO 20000.K

 NOTE. WEIGHT FRACTION OF FUEL IN TOTAL FUELS AND OF OXIDANT IN TOTAL OXIDANTS









               THERMODYNAMIC EQUILIBRIUM PROPERTIES AT ASSIGNED

                           TEMPERATURE AND PRESSURE

 CASE =                

             REACTANT                    WT FRACTION      ENERGY      TEMP
                                          (SEE NOTE)     KJ/KG-MOL      K  
 FUEL        H2                           1.0000000         0.000      0.000
 OXIDANT     H2                           1.0000000         0.000      0.000

 O/F=    1.00000  %FUEL= 50.000000  R,EQ.RATIO= 0.000000  PHI,EQ.RATIO=-1.000000

 THERMODYNAMIC PROPERTIES

 P, BAR            5.4000   5.4000   5.4000   5.4000   5.4000   5.4000   5.4000   5.4000
 T, K             3570.00  3580.00  3590.00  3600.00  3610.00  3620.00  3630.00  3640.00
 RHO, KG/CU M    3.1972-2 3.1795-2 3.1619-2 3.1442-2 3.1266-2 3.1090-2 3.0914-2 3.0739-2
 H, KJ/KG         88357.6  89273.4  90200.1  91137.7  92086.3  93045.9  94016.6  94998.3
 U, KJ/KG         71468.0  72289.9  73121.7  73963.4  74815.2  75677.0  76548.9  77430.8
 G, KJ/KG       -295765.0-296842.3-297922.1-299004.5-300089.6-301177.3-302267.6-303360.7
 S, KJ/(KG)(K)   107.5974 107.8535 108.1120 108.3729 108.6360 108.9014 109.1692 109.4393

 M, (1/n)           1.757    1.753    1.748    1.743    1.738    1.733    1.728    1.723
 (dLV/dLP)t      -1.06271 -1.06382 -1.06494 -1.06606 -1.06718 -1.06832 -1.06945 -1.07059
 (dLV/dLT)p        1.9756   1.9902   2.0048   2.0194   2.0340   2.0486   2.0631   2.0777
 Cp, KJ/(KG)(K)   91.0378  92.1247  93.2159  94.3110  95.4098  96.5118  97.6168  98.7241
 GAMMAs            1.1630   1.1630   1.1630   1.1631   1.1631   1.1632   1.1633   1.1634
 SON VEL,M/SEC     4431.9   4444.3   4456.8   4469.4   4482.1   4494.9   4507.8   4520.8

 TRANSPORT PROPERTIES (GASES ONLY)
   CONDUCTIVITY IN UNITS OF MILLIWATTS/(CM)(K)

 VISC,MILLIPOISE  0.58397  0.58600  0.58803  0.59005  0.59206  0.59406  0.59605  0.59803

  WITH EQUILIBRIUM REACTIONS

 Cp, KJ/(KG)(K)   91.0378  92.1247  93.2159  94.3110  95.4098  96.5118  97.6167  98.7241
 CONDUCTIVITY    109.4369 110.8630 112.2895 113.7160 115.1418 116.5662 117.9886 119.4084
 PRANDTL NUMBER    0.4858   0.4870   0.4881   0.4894   0.4906   0.4919   0.4931   0.4944

  WITH FROZEN REACTIONS

 Cp, KJ/(KG)(K)   19.2263  19.2397  19.2532  19.2666  19.2800  19.2934  19.3068  19.3203
 CONDUCTIVITY     16.0895  16.1515  16.2131  16.2743  16.3351  16.3954  16.4553  16.5147
 PRANDTL NUMBER    0.6978   0.6981   0.6983   0.6985   0.6988   0.6991   0.6993   0.6996

 MASS FRACTIONS

 *H               0.14704  0.15020  0.15340  0.15666  0.15996  0.16330  0.16669  0.17014
 *H2              0.85296  0.84980  0.84660  0.84334  0.84004  0.83670  0.83331  0.82986

  * THERMODYNAMIC PROPERTIES FITTED TO 20000.K

 NOTE. WEIGHT FRACTION OF FUEL IN TOTAL FUELS AND OF OXIDANT IN TOTAL OXIDANTS









               THERMODYNAMIC EQUILIBRIUM PROPERTIES AT ASSIGNED

                           TEMPERATURE AND PRESSURE

 CASE =                

             REACTANT                    WT FRACTION      ENERGY      TEMP
                                          (SEE NOTE)     KJ/KG-MOL      K  
 FUEL        H2                           1.0000000         0.000      0.000
 OXIDANT     H2                           1.0000000         0.000      0.000

 O/F=    1.00000  %FUEL= 50.000000  R,EQ.RATIO= 0.000000  PHI,EQ.RATIO=-1.000000

 THERMODYNAMIC PROPERTIES

 P, BAR            6.0000   6.0000   6.0000   6.0000   6.0000   6.0000   6.0000   6.0000
 T, K             3500.00  3510.00  3520.00  3530.00  3540.00  3550.00  3560.00  3570.00
 RHO, KG/CU M    3.7115-2 3.6921-2 3.6726-2 3.6532-2 3.6337-2 3.6143-2 3.5949-2 3.5755-2
 H, KJ/KG         80786.5  81595.5  82414.7  83243.9  84083.4  84933.1  85793.2  86663.6
 U, KJ/KG         64620.7  65344.5  66077.5  66819.8  67571.5  68332.5  69103.0  69882.9
 G, KJ/KG       -286586.3-287637.1-288690.2-289745.7-290803.5-291863.7-292926.3-293991.3
 S, KJ/(KG)(K)   104.9637 105.1945 105.4275 105.6628 105.9003 106.1400 106.3819 106.6260

 M, (1/n)           1.800    1.796    1.791    1.787    1.783    1.778    1.773    1.769
 (dLV/dLP)t      -1.05274 -1.05376 -1.05479 -1.05583 -1.05688 -1.05794 -1.05900 -1.06007
 (dLV/dLT)p        1.8365   1.8504   1.8643   1.8782   1.8923   1.9063   1.9205   1.9346
 Cp, KJ/(KG)(K)   80.4040  81.4083  82.4190  83.4360  84.4591  85.4879  86.5224  87.5621
 GAMMAs            1.1642   1.1641   1.1640   1.1640   1.1640   1.1639   1.1639   1.1639
 SON VEL,M/SEC     4338.2   4349.5   4360.9   4372.4   4384.0   4395.7   4407.5   4419.5

 TRANSPORT PROPERTIES (GASES ONLY)
   CONDUCTIVITY IN UNITS OF MILLIWATTS/(CM)(K)

 VISC,MILLIPOISE  0.56789  0.56996  0.57202  0.57408  0.57614  0.57819  0.58024  0.58229

  WITH EQUILIBRIUM REACTIONS

 Cp, KJ/(KG)(K)   80.4040  81.4083  82.4190  83.4360  84.4591  85.4879  86.5224  87.5621
 CONDUCTIVITY     95.8079  97.1740  98.5454  99.9215 101.3019 102.6861 104.0736 105.4639
 PRANDTL NUMBER    0.4766   0.4775   0.4784   0.4794   0.4803   0.4814   0.4824   0.4835

  WITH FROZEN REACTIONS

 Cp, KJ/(KG)(K)   19.1215  19.1347  19.1480  19.1612  19.1745  19.1877  19.2010  19.2142
 CONDUCTIVITY     15.5967  15.6610  15.7251  15.7890  15.8527  15.9162  15.9794  16.0423
 PRANDTL NUMBER    0.6962   0.6964   0.6965   0.6967   0.6969   0.6970   0.6972   0.6974

 MASS FRACTIONS

 *H               0.11984  0.12254  0.12528  0.12807  0.13090  0.13377  0.13669  0.13965
 *H2              0.88016  0.87746  0.87472  0.87193  0.86910  0.86623  0.86331  0.86035

  * THERMODYNAMIC PROPERTIES FITTED TO 20000.K

 NOTE. WEIGHT FRACTION OF FUEL IN TOTAL FUELS AND OF OXIDANT IN TOTAL OXIDANTS









               THERMODYNAMIC EQUILIBRIUM PROPERTIES AT ASSIGNED

                           TEMPERATURE AND PRESSURE

 CASE =                

             REACTANT                    WT FRACTION      ENERGY      TEMP
                                          (SEE NOTE)     KJ/KG-MOL      K  
 FUEL        H2                           1.0000000         0.000      0.000
 OXIDANT     H2                           1.0000000         0.000      0.000

 O/F=    1.00000  %FUEL= 50.000000  R,EQ.RATIO= 0.000000  PHI,EQ.RATIO=-1.000000

 THERMODYNAMIC PROPERTIES

 P, BAR            6.0000   6.0000   6.0000   6.0000   6.0000   6.0000   6.0000   6.7000
 T, K             3580.00  3590.00  3600.00  3610.00  3620.00  3630.00  3640.00  3500.00
 RHO, KG/CU M    3.5562-2 3.5368-2 3.5175-2 3.4982-2 3.4789-2 3.4596-2 3.4404-2 4.1682-2
 H, KJ/KG         87544.5  88435.8  89337.6  90250.0  91173.0  92106.6  93050.9  79333.0
 U, KJ/KG         70672.3  71471.4  72280.0  73098.2  73926.1  74763.7  75611.0  63258.8
 G, KJ/KG       -295058.8-296128.8-297201.2-298276.2-299353.7-300433.8-301516.5-284807.6
 S, KJ/(KG)(K)   106.8724 107.1210 107.3719 107.6250 107.8803 108.1379 108.3976 104.0402

 M, (1/n)           1.764    1.760    1.755    1.750    1.745    1.740    1.735    1.810
 (dLV/dLP)t      -1.06115 -1.06224 -1.06333 -1.06443 -1.06553 -1.06664 -1.06776 -1.05031
 (dLV/dLT)p        1.9488   1.9630   1.9773   1.9915   2.0058   2.0201   2.0344   1.7979
 Cp, KJ/(KG)(K)   88.6068  89.6563  90.7103  91.7684  92.8303  93.8957  94.9643  77.2344
 GAMMAs            1.1639   1.1640   1.1640   1.1640   1.1641   1.1641   1.1642   1.1654
 SON VEL,M/SEC     4431.5   4443.6   4455.9   4468.2   4480.7   4493.3   4506.0   4328.1

 TRANSPORT PROPERTIES (GASES ONLY)
   CONDUCTIVITY IN UNITS OF MILLIWATTS/(CM)(K)

 VISC,MILLIPOISE  0.58433  0.58637  0.58840  0.59043  0.59245  0.59446  0.59646  0.56611

  WITH EQUILIBRIUM REACTIONS

 Cp, KJ/(KG)(K)   88.6068  89.6563  90.7103  91.7683  92.8303  93.8957  94.9643  77.2344
 CONDUCTIVITY    106.8565 108.2509 109.6464 111.0426 112.4388 113.8345 115.2291  92.0539
 PRANDTL NUMBER    0.4845   0.4856   0.4868   0.4879   0.4891   0.4903   0.4916   0.4750

  WITH FROZEN REACTIONS

 Cp, KJ/(KG)(K)   19.2275  19.2407  19.2540  19.2672  19.2804  19.2937  19.3069  19.1106
 CONDUCTIVITY     16.1049  16.1672  16.2292  16.2908  16.3520  16.4128  16.4732  15.5435
 PRANDTL NUMBER    0.6976   0.6978   0.6981   0.6983   0.6985   0.6988   0.6991   0.6960

 MASS FRACTIONS

 *H               0.14265  0.14570  0.14880  0.15194  0.15513  0.15836  0.16164  0.11350
 *H2              0.85735  0.85430  0.85120  0.84806  0.84487  0.84164  0.83836  0.88650

  * THERMODYNAMIC PROPERTIES FITTED TO 20000.K

 NOTE. WEIGHT FRACTION OF FUEL IN TOTAL FUELS AND OF OXIDANT IN TOTAL OXIDANTS









               THERMODYNAMIC EQUILIBRIUM PROPERTIES AT ASSIGNED

                           TEMPERATURE AND PRESSURE

 CASE =                

             REACTANT                    WT FRACTION      ENERGY      TEMP
                                          (SEE NOTE)     KJ/KG-MOL      K  
 FUEL        H2                           1.0000000         0.000      0.000
 OXIDANT     H2                           1.0000000         0.000      0.000

 O/F=    1.00000  %FUEL= 50.000000  R,EQ.RATIO= 0.000000  PHI,EQ.RATIO=-1.000000

 THERMODYNAMIC PROPERTIES

 P, BAR            6.7000   6.7000   6.7000   6.7000   6.7000   6.7000   6.7000   6.7000
 T, K             3510.00  3520.00  3530.00  3540.00  3550.00  3560.00  3570.00  3580.00
 RHO, KG/CU M    4.1468-2 4.1254-2 4.1040-2 4.0826-2 4.0613-2 4.0400-2 4.0186-2 3.9973-2
 H, KJ/KG         80110.2  80896.9  81693.4  82499.6  83315.6  84141.4  84977.3  85823.0
 U, KJ/KG         63953.0  64656.0  65367.8  66088.6  66818.3  67557.1  68304.9  69061.9
 G, KJ/KG       -285849.1-286892.8-287938.8-288987.0-290037.6-291090.4-292145.6-293203.2
 S, KJ/(KG)(K)   104.2619 104.4857 104.7117 104.9397 105.1699 105.4022 105.6367 105.8732

 M, (1/n)           1.806    1.802    1.798    1.794    1.789    1.785    1.780    1.776
 (dLV/dLP)t      -1.05129 -1.05229 -1.05329 -1.05430 -1.05533 -1.05636 -1.05739 -1.05844
 (dLV/dLT)p        1.8113   1.8248   1.8383   1.8518   1.8655   1.8792   1.8929   1.9067
 Cp, KJ/(KG)(K)   78.1934  79.1591  80.1311  81.1094  82.0936  83.0837  84.0793  85.0803
 GAMMAs            1.1653   1.1652   1.1652   1.1651   1.1651   1.1650   1.1650   1.1650
 SON VEL,M/SEC     4339.1   4350.2   4361.4   4372.7   4384.1   4395.6   4407.2   4418.9

 TRANSPORT PROPERTIES (GASES ONLY)
   CONDUCTIVITY IN UNITS OF MILLIWATTS/(CM)(K)

 VISC,MILLIPOISE  0.56817  0.57023  0.57229  0.57435  0.57640  0.57845  0.58051  0.58255

  WITH EQUILIBRIUM REACTIONS

 Cp, KJ/(KG)(K)   78.1934  79.1591  80.1311  81.1094  82.0936  83.0837  84.0793  85.0803
 CONDUCTIVITY     93.3767  94.7055  96.0398  97.3793  98.7234 100.0718 101.4240 102.7795
 PRANDTL NUMBER    0.4758   0.4766   0.4775   0.4784   0.4793   0.4803   0.4812   0.4822

  WITH FROZEN REACTIONS

 Cp, KJ/(KG)(K)   19.1237  19.1368  19.1499  19.1629  19.1760  19.1891  19.2022  19.2152
 CONDUCTIVITY     15.6080  15.6723  15.7365  15.8005  15.8643  15.9280  15.9914  16.0545
 PRANDTL NUMBER    0.6962   0.6963   0.6964   0.6966   0.6967   0.6969   0.6971   0.6972

 MASS FRACTIONS

 *H               0.11606  0.11866  0.12130  0.12398  0.12671  0.12948  0.13229  0.13514
 *H2              0.88394  0.88134  0.87870  0.87602  0.87329  0.87052  0.86771  0.86486

  * THERMODYNAMIC PROPERTIES FITTED TO 20000.K

 NOTE. WEIGHT FRACTION OF FUEL IN TOTAL FUELS AND OF OXIDANT IN TOTAL OXIDANTS









               THERMODYNAMIC EQUILIBRIUM PROPERTIES AT ASSIGNED

                           TEMPERATURE AND PRESSURE

 CASE =                

             REACTANT                    WT FRACTION      ENERGY      TEMP
                                          (SEE NOTE)     KJ/KG-MOL      K  
 FUEL        H2                           1.0000000         0.000      0.000
 OXIDANT     H2                           1.0000000         0.000      0.000

 O/F=    1.00000  %FUEL= 50.000000  R,EQ.RATIO= 0.000000  PHI,EQ.RATIO=-1.000000

 THERMODYNAMIC PROPERTIES

 P, BAR            6.7000   6.7000   6.7000   6.7000   6.7000   6.7000   7.4000   7.4000
 T, K             3590.00  3600.00  3610.00  3620.00  3630.00  3640.00  3500.00  3510.00
 RHO, KG/CU M    3.9761-2 3.9548-2 3.9336-2 3.9123-2 3.8911-2 3.8700-2 4.6262-2 4.6029-2
 H, KJ/KG         86678.9  87544.8  88420.8  89307.1  90203.5  91110.2  78088.5  78838.1
 U, KJ/KG         69828.0  70603.3  71387.9  72181.7  72984.9  73797.4  62092.8  62761.4
 G, KJ/KG       -294263.1-295325.4-296390.2-297457.4-298527.0-299599.1-283214.2-284247.5
 S, KJ/(KG)(K)   106.1120 106.3528 106.5958 106.8410 107.0883 107.3377 103.2293 103.4432

 M, (1/n)           1.771    1.767    1.762    1.758    1.753    1.748    1.819    1.815
 (dLV/dLP)t      -1.05949 -1.06055 -1.06162 -1.06269 -1.06377 -1.06485 -1.04819 -1.04915
 (dLV/dLT)p        1.9205   1.9344   1.9483   1.9622   1.9761   1.9901   1.7644   1.7773
 Cp, KJ/(KG)(K)   86.0863  87.0973  88.1127  89.1325  90.1564  91.1839  74.5090  75.4284
 GAMMAs            1.1650   1.1650   1.1650   1.1650   1.1651   1.1651   1.1665   1.1664
 SON VEL,M/SEC     4430.7   4442.6   4454.6   4466.7   4479.0   4491.3   4319.7   4330.4

 TRANSPORT PROPERTIES (GASES ONLY)
   CONDUCTIVITY IN UNITS OF MILLIWATTS/(CM)(K)

 VISC,MILLIPOISE  0.58460  0.58664  0.58867  0.59070  0.59273  0.59474  0.56452  0.56657

  WITH EQUILIBRIUM REACTIONS

 Cp, KJ/(KG)(K)   86.0863  87.0972  88.1127  89.1325  90.1564  91.1839  74.5090  75.4284
 CONDUCTIVITY    104.1378 105.4985 106.8611 108.2251 109.5898 110.9548  88.7881  90.0714
 PRANDTL NUMBER    0.4833   0.4843   0.4854   0.4865   0.4876   0.4888   0.4737   0.4745

  WITH FROZEN REACTIONS

 Cp, KJ/(KG)(K)   19.2283  19.2414  19.2544  19.2675  19.2806  19.2936  19.1014  19.1143
 CONDUCTIVITY     16.1174  16.1800  16.2422  16.3042  16.3658  16.4270  15.4952  15.5597
 PRANDTL NUMBER    0.6974   0.6976   0.6978   0.6981   0.6983   0.6985   0.6959   0.6960

 MASS FRACTIONS

 *H               0.13804  0.14098  0.14396  0.14699  0.15006  0.15317  0.10806  0.11050
 *H2              0.86196  0.85902  0.85604  0.85301  0.84994  0.84683  0.89194  0.88950

  * THERMODYNAMIC PROPERTIES FITTED TO 20000.K

 NOTE. WEIGHT FRACTION OF FUEL IN TOTAL FUELS AND OF OXIDANT IN TOTAL OXIDANTS









               THERMODYNAMIC EQUILIBRIUM PROPERTIES AT ASSIGNED

                           TEMPERATURE AND PRESSURE

 CASE =                

             REACTANT                    WT FRACTION      ENERGY      TEMP
                                          (SEE NOTE)     KJ/KG-MOL      K  
 FUEL        H2                           1.0000000         0.000      0.000
 OXIDANT     H2                           1.0000000         0.000      0.000

 O/F=    1.00000  %FUEL= 50.000000  R,EQ.RATIO= 0.000000  PHI,EQ.RATIO=-1.000000

 THERMODYNAMIC PROPERTIES

 P, BAR            7.4000   7.4000   7.4000   7.4000   7.4000   7.4000   7.4000   7.4000
 T, K             3520.00  3530.00  3540.00  3550.00  3560.00  3570.00  3580.00  3590.00
 RHO, KG/CU M    4.5796-2 4.5563-2 4.5331-2 4.5098-2 4.4866-2 4.4634-2 4.4402-2 4.4170-2
 H, KJ/KG         79597.1  80365.3  81142.8  81929.8  82726.2  83532.2  84347.8  85173.0
 U, KJ/KG         63438.5  64124.1  64818.3  65521.1  66232.6  66952.8  67681.7  68419.5
 G, KJ/KG       -285283.0-286320.7-287360.6-288402.6-289447.0-290493.5-291542.3-292593.5
 S, KJ/(KG)(K)   103.6591 103.8770 104.0970 104.3190 104.5430 104.7691 104.9973 105.2274

 M, (1/n)           1.811    1.807    1.803    1.799    1.795    1.790    1.786    1.782
 (dLV/dLP)t      -1.05011 -1.05108 -1.05206 -1.05305 -1.05405 -1.05505 -1.05607 -1.05709
 (dLV/dLT)p        1.7904   1.8035   1.8166   1.8299   1.8432   1.8565   1.8699   1.8834
 Cp, KJ/(KG)(K)   76.3544  77.2869  78.2256  79.1705  80.1213  81.0779  82.0400  83.0074
 GAMMAs            1.1663   1.1662   1.1662   1.1661   1.1660   1.1660   1.1660   1.1660
 SON VEL,M/SEC     4341.2   4352.1   4363.1   4374.3   4385.5   4396.8   4408.2   4419.7

 TRANSPORT PROPERTIES (GASES ONLY)
   CONDUCTIVITY IN UNITS OF MILLIWATTS/(CM)(K)

 VISC,MILLIPOISE  0.56862  0.57067  0.57273  0.57478  0.57683  0.57888  0.58093  0.58298

  WITH EQUILIBRIUM REACTIONS

 Cp, KJ/(KG)(K)   76.3544  77.2869  78.2256  79.1705  80.1213  81.0779  82.0399  83.0073
 CONDUCTIVITY     91.3613  92.6573  93.9590  95.2660  96.5781  97.8947  99.2154 100.5398
 PRANDTL NUMBER    0.4752   0.4760   0.4768   0.4777   0.4785   0.4794   0.4804   0.4813

  WITH FROZEN REACTIONS

 Cp, KJ/(KG)(K)   19.1272  19.1401  19.1531  19.1660  19.1789  19.1918  19.2048  19.2177
 CONDUCTIVITY     15.6242  15.6885  15.7527  15.8168  15.8806  15.9443  16.0078  16.0711
 PRANDTL NUMBER    0.6961   0.6962   0.6964   0.6965   0.6966   0.6968   0.6969   0.6971

 MASS FRACTIONS

 *H               0.11298  0.11550  0.11806  0.12066  0.12330  0.12598  0.12870  0.13146
 *H2              0.88702  0.88450  0.88194  0.87934  0.87670  0.87402  0.87130  0.86854

  * THERMODYNAMIC PROPERTIES FITTED TO 20000.K

 NOTE. WEIGHT FRACTION OF FUEL IN TOTAL FUELS AND OF OXIDANT IN TOTAL OXIDANTS









               THERMODYNAMIC EQUILIBRIUM PROPERTIES AT ASSIGNED

                           TEMPERATURE AND PRESSURE

 CASE =                

             REACTANT                    WT FRACTION      ENERGY      TEMP
                                          (SEE NOTE)     KJ/KG-MOL      K  
 FUEL        H2                           1.0000000         0.000      0.000
 OXIDANT     H2                           1.0000000         0.000      0.000

 O/F=    1.00000  %FUEL= 50.000000  R,EQ.RATIO= 0.000000  PHI,EQ.RATIO=-1.000000

 THERMODYNAMIC PROPERTIES

 P, BAR            7.4000   7.4000   7.4000   7.4000   7.4000   8.2500   8.2500   8.2500
 T, K             3600.00  3610.00  3620.00  3630.00  3640.00  3500.00  3510.00  3520.00
 RHO, KG/CU M    4.3938-2 4.3707-2 4.3476-2 4.3245-2 4.3014-2 5.1841-2 5.1585-2 5.1329-2
 H, KJ/KG         86008.0  86852.7  87707.1  88571.5  89445.7  76793.3  77514.3  78244.1
 U, KJ/KG         69166.1  69921.6  70686.1  71459.5  72241.9  60879.3  61521.3  62171.4
 G, KJ/KG       -293646.9-294702.7-295760.8-296821.3-297884.2-281479.4-282504.0-283530.8
 S, KJ/(KG)(K)   105.4597 105.6940 105.9304 106.1688 106.4093 102.3636 102.5693 102.7770

 M, (1/n)           1.777    1.773    1.768    1.764    1.759    1.829    1.825    1.821
 (dLV/dLP)t      -1.05812 -1.05916 -1.06020 -1.06125 -1.06231 -1.04596 -1.04688 -1.04780
 (dLV/dLT)p        1.8969   1.9104   1.9240   1.9376   1.9512   1.7290   1.7414   1.7540
 Cp, KJ/(KG)(K)   83.9799  84.9572  85.9393  86.9257  87.9162  71.6623  72.5395  73.4233
 GAMMAs            1.1659   1.1659   1.1660   1.1660   1.1660   1.1678   1.1677   1.1676
 SON VEL,M/SEC     4431.3   4443.0   4454.9   4466.8   4478.8   4311.0   4321.5   4332.0

 TRANSPORT PROPERTIES (GASES ONLY)
   CONDUCTIVITY IN UNITS OF MILLIWATTS/(CM)(K)

 VISC,MILLIPOISE  0.58502  0.58706  0.58910  0.59113  0.59316  0.56278  0.56482  0.56686

  WITH EQUILIBRIUM REACTIONS

 Cp, KJ/(KG)(K)   83.9799  84.9572  85.9393  86.9257  87.9162  71.6623  72.5395  73.4233
 CONDUCTIVITY    101.8675 103.1980 104.5308 105.8655 107.2016  85.3390  86.5790  87.8259
 PRANDTL NUMBER    0.4823   0.4833   0.4843   0.4854   0.4865   0.4726   0.4732   0.4739

  WITH FROZEN REACTIONS

 Cp, KJ/(KG)(K)   19.2306  19.2435  19.2564  19.2693  19.2822  19.0917  19.1045  19.1173
 CONDUCTIVITY     16.1341  16.1969  16.2594  16.3216  16.3835  15.4422  15.5067  15.5711
 PRANDTL NUMBER    0.6973   0.6975   0.6977   0.6979   0.6981   0.6958   0.6959   0.6960

 MASS FRACTIONS

 *H               0.13427  0.13712  0.14000  0.14294  0.14591  0.10240  0.10472  0.10707
 *H2              0.86573  0.86288  0.86000  0.85706  0.85409  0.89760  0.89528  0.89293

  * THERMODYNAMIC PROPERTIES FITTED TO 20000.K

 NOTE. WEIGHT FRACTION OF FUEL IN TOTAL FUELS AND OF OXIDANT IN TOTAL OXIDANTS









               THERMODYNAMIC EQUILIBRIUM PROPERTIES AT ASSIGNED

                           TEMPERATURE AND PRESSURE

 CASE =                

             REACTANT                    WT FRACTION      ENERGY      TEMP
                                          (SEE NOTE)     KJ/KG-MOL      K  
 FUEL        H2                           1.0000000         0.000      0.000
 OXIDANT     H2                           1.0000000         0.000      0.000

 O/F=    1.00000  %FUEL= 50.000000  R,EQ.RATIO= 0.000000  PHI,EQ.RATIO=-1.000000

 THERMODYNAMIC PROPERTIES

 P, BAR            8.2500   8.2500   8.2500   8.2500   8.2500   8.2500   8.2500   8.2500
 T, K             3530.00  3540.00  3550.00  3560.00  3570.00  3580.00  3590.00  3600.00
 RHO, KG/CU M    5.1073-2 5.0818-2 5.0563-2 5.0307-2 5.0052-2 4.9798-2 4.9543-2 4.9289-2
 H, KJ/KG         78982.8  79730.4  80487.1  81252.7  82027.5  82811.5  83604.7  84407.1
 U, KJ/KG         62829.6  63496.0  64170.6  64853.5  65544.8  66244.4  66952.5  67669.0
 G, KJ/KG       -284559.6-285590.5-286623.5-287658.7-288696.1-289735.6-290777.4-291821.3
 S, KJ/(KG)(K)   102.9865 103.1980 103.4114 103.6268 103.8441 104.0634 104.2847 104.5079

 M, (1/n)           1.817    1.813    1.809    1.805    1.801    1.797    1.793    1.788
 (dLV/dLP)t      -1.04874 -1.04969 -1.05064 -1.05160 -1.05258 -1.05356 -1.05454 -1.05554
 (dLV/dLT)p        1.7667   1.7794   1.7922   1.8050   1.8180   1.8309   1.8440   1.8571
 Cp, KJ/(KG)(K)   74.3136  75.2102  76.1130  77.0218  77.9365  78.8568  79.7826  80.7137
 GAMMAs            1.1675   1.1674   1.1673   1.1672   1.1672   1.1671   1.1671   1.1670
 SON VEL,M/SEC     4342.6   4353.4   4364.2   4375.1   4386.1   4397.2   4408.4   4419.7

 TRANSPORT PROPERTIES (GASES ONLY)
   CONDUCTIVITY IN UNITS OF MILLIWATTS/(CM)(K)

 VISC,MILLIPOISE  0.56891  0.57095  0.57300  0.57505  0.57710  0.57914  0.58119  0.58324

  WITH EQUILIBRIUM REACTIONS

 Cp, KJ/(KG)(K)   74.3136  75.2102  76.1130  77.0218  77.9365  78.8568  79.7826  80.7137
 CONDUCTIVITY     89.0794  90.3393  91.6051  92.8765  94.1532  95.4347  96.7208  98.0109
 PRANDTL NUMBER    0.4746   0.4753   0.4761   0.4769   0.4777   0.4785   0.4794   0.4803

  WITH FROZEN REACTIONS

 Cp, KJ/(KG)(K)   19.1300  19.1428  19.1556  19.1683  19.1811  19.1938  19.2066  19.2194
 CONDUCTIVITY     15.6355  15.6998  15.7640  15.8280  15.8920  15.9557  16.0193  16.0827
 PRANDTL NUMBER    0.6961   0.6962   0.6963   0.6964   0.6965   0.6967   0.6968   0.6970

 MASS FRACTIONS

 *H               0.10946  0.11189  0.11436  0.11686  0.11941  0.12199  0.12462  0.12728
 *H2              0.89054  0.88811  0.88564  0.88314  0.88059  0.87801  0.87538  0.87272

  * THERMODYNAMIC PROPERTIES FITTED TO 20000.K

 NOTE. WEIGHT FRACTION OF FUEL IN TOTAL FUELS AND OF OXIDANT IN TOTAL OXIDANTS









               THERMODYNAMIC EQUILIBRIUM PROPERTIES AT ASSIGNED

                           TEMPERATURE AND PRESSURE

 CASE =                

             REACTANT                    WT FRACTION      ENERGY      TEMP
                                          (SEE NOTE)     KJ/KG-MOL      K  
 FUEL        H2                           1.0000000         0.000      0.000
 OXIDANT     H2                           1.0000000         0.000      0.000

 O/F=    1.00000  %FUEL= 50.000000  R,EQ.RATIO= 0.000000  PHI,EQ.RATIO=-1.000000

 THERMODYNAMIC PROPERTIES

 P, BAR            8.2500   8.2500   8.2500   8.2500   9.1000   9.1000   9.1000   9.1000
 T, K             3610.00  3620.00  3630.00  3640.00  3500.00  3510.00  3520.00  3530.00
 RHO, KG/CU M    4.9034-2 4.8781-2 4.8527-2 4.8273-2 5.7435-2 5.7156-2 5.6878-2 5.6600-2
 H, KJ/KG         85219.0  86040.2  86870.8  87710.9  75682.4  76378.7  77083.5  77796.7
 U, KJ/KG         68394.1  69127.7  69869.9  70620.8  59838.4  60457.5  61084.3  61718.9
 G, KJ/KG       -292867.5-293916.0-294966.7-296019.8-279922.3-280939.3-281958.3-282979.3
 S, KJ/(KG)(K)   104.7331 104.9603 105.1894 105.4205 101.6013 101.8000 102.0005 102.2028

 M, (1/n)           1.784    1.780    1.775    1.771    1.837    1.833    1.829    1.826
 (dLV/dLP)t      -1.05654 -1.05756 -1.05858 -1.05960 -1.04402 -1.04490 -1.04580 -1.04670
 (dLV/dLT)p        1.8702   1.8834   1.8966   1.9099   1.6982   1.7102   1.7224   1.7346
 Cp, KJ/(KG)(K)   81.6499  82.5910  83.5368  84.4870  69.2122  70.0526  70.8995  71.7529
 GAMMAs            1.1670   1.1670   1.1670   1.1670   1.1690   1.1689   1.1688   1.1686
 SON VEL,M/SEC     4431.1   4442.6   4454.2   4465.9   4303.8   4314.0   4324.2   4334.6

 TRANSPORT PROPERTIES (GASES ONLY)
   CONDUCTIVITY IN UNITS OF MILLIWATTS/(CM)(K)

 VISC,MILLIPOISE  0.58528  0.58732  0.58936  0.59139  0.56123  0.56326  0.56529  0.56732

  WITH EQUILIBRIUM REACTIONS

 Cp, KJ/(KG)(K)   81.6499  82.5910  83.5368  84.4870  69.2122  70.0526  70.8995  71.7528
 CONDUCTIVITY     99.3047 100.6018 101.9017 103.2040  82.3393  83.5401  84.7482  85.9633
 PRANDTL NUMBER    0.4812   0.4822   0.4831   0.4841   0.4718   0.4723   0.4729   0.4735

  WITH FROZEN REACTIONS

 Cp, KJ/(KG)(K)   19.2321  19.2449  19.2576  19.2704  19.0835  19.0961  19.1087  19.1213
 CONDUCTIVITY     16.1459  16.2089  16.2716  16.3341  15.3944  15.4588  15.5232  15.5875
 PRANDTL NUMBER    0.6972   0.6973   0.6975   0.6977   0.6957   0.6958   0.6959   0.6959

 MASS FRACTIONS

 *H               0.12999  0.13273  0.13551  0.13834  0.09755  0.09976  0.10200  0.10428
 *H2              0.87001  0.86727  0.86449  0.86166  0.90245  0.90024  0.89800  0.89572

  * THERMODYNAMIC PROPERTIES FITTED TO 20000.K

 NOTE. WEIGHT FRACTION OF FUEL IN TOTAL FUELS AND OF OXIDANT IN TOTAL OXIDANTS









               THERMODYNAMIC EQUILIBRIUM PROPERTIES AT ASSIGNED

                           TEMPERATURE AND PRESSURE

 CASE =                

             REACTANT                    WT FRACTION      ENERGY      TEMP
                                          (SEE NOTE)     KJ/KG-MOL      K  
 FUEL        H2                           1.0000000         0.000      0.000
 OXIDANT     H2                           1.0000000         0.000      0.000

 O/F=    1.00000  %FUEL= 50.000000  R,EQ.RATIO= 0.000000  PHI,EQ.RATIO=-1.000000

 THERMODYNAMIC PROPERTIES

 P, BAR            9.1000   9.1000   9.1000   9.1000   9.1000   9.1000   9.1000   9.1000
 T, K             3540.00  3550.00  3560.00  3570.00  3580.00  3590.00  3600.00  3610.00
 RHO, KG/CU M    5.6322-2 5.6044-2 5.5766-2 5.5489-2 5.5212-2 5.4934-2 5.4658-2 5.4381-2
 H, KJ/KG         78518.5  79249.0  79988.1  80736.0  81492.7  82258.2  83032.7  83816.2
 U, KJ/KG         62361.3  63011.7  63670.0  64336.3  65010.6  65693.1  66383.7  67082.4
 G, KJ/KG       -284002.3-285027.4-286054.6-287083.9-288115.2-289148.7-290184.4-291222.2
 S, KJ/(KG)(K)   102.4070 102.6131 102.8210 103.0308 103.2424 103.4560 103.6714 103.8887

 M, (1/n)           1.822    1.818    1.814    1.810    1.806    1.802    1.798    1.794
 (dLV/dLP)t      -1.04762 -1.04854 -1.04947 -1.05041 -1.05136 -1.05232 -1.05329 -1.05426
 (dLV/dLT)p        1.7470   1.7593   1.7718   1.7843   1.7969   1.8096   1.8223   1.8351
 Cp, KJ/(KG)(K)   72.6125  73.4783  74.3501  75.2279  76.1113  77.0003  77.8948  78.7945
 GAMMAs            1.1685   1.1684   1.1683   1.1682   1.1682   1.1681   1.1681   1.1680
 SON VEL,M/SEC     4345.1   4355.7   4366.3   4377.1   4387.9   4398.8   4409.9   4421.0

 TRANSPORT PROPERTIES (GASES ONLY)
   CONDUCTIVITY IN UNITS OF MILLIWATTS/(CM)(K)

 VISC,MILLIPOISE  0.56936  0.57140  0.57344  0.57548  0.57753  0.57957  0.58161  0.58365

  WITH EQUILIBRIUM REACTIONS

 Cp, KJ/(KG)(K)   72.6125  73.4783  74.3501  75.2278  76.1113  77.0003  77.8948  78.7945
 CONDUCTIVITY     87.1852  88.4134  89.6477  90.8878  92.1333  93.3839  94.6392  95.8988
 PRANDTL NUMBER    0.4742   0.4749   0.4756   0.4763   0.4771   0.4779   0.4787   0.4796

  WITH FROZEN REACTIONS

 Cp, KJ/(KG)(K)   19.1340  19.1466  19.1592  19.1719  19.1845  19.1971  19.2097  19.2223
 CONDUCTIVITY     15.6518  15.7160  15.7801  15.8441  15.9080  15.9718  16.0355  16.0989
 PRANDTL NUMBER    0.6960   0.6961   0.6962   0.6964   0.6965   0.6966   0.6967   0.6969

 MASS FRACTIONS

 *H               0.10660  0.10895  0.11134  0.11377  0.11624  0.11874  0.12128  0.12386
 *H2              0.89340  0.89105  0.88866  0.88623  0.88376  0.88126  0.87872  0.87614

  * THERMODYNAMIC PROPERTIES FITTED TO 20000.K

 NOTE. WEIGHT FRACTION OF FUEL IN TOTAL FUELS AND OF OXIDANT IN TOTAL OXIDANTS









               THERMODYNAMIC EQUILIBRIUM PROPERTIES AT ASSIGNED

                           TEMPERATURE AND PRESSURE

 CASE =                

             REACTANT                    WT FRACTION      ENERGY      TEMP
                                          (SEE NOTE)     KJ/KG-MOL      K  
 FUEL        H2                           1.0000000         0.000      0.000
 OXIDANT     H2                           1.0000000         0.000      0.000

 O/F=    1.00000  %FUEL= 50.000000  R,EQ.RATIO= 0.000000  PHI,EQ.RATIO=-1.000000

 THERMODYNAMIC PROPERTIES

 P, BAR            9.1000   9.1000   9.1000   10.000   10.000   10.000   10.000   10.000
 T, K             3620.00  3630.00  3640.00  3500.00  3510.00  3520.00  3530.00  3540.00
 RHO, KG/CU M    5.4105-2 5.3829-2 5.3553-2 6.3372-2 6.3070-2 6.2768-2 6.2466-2 6.2165-2
 H, KJ/KG         84608.6  85410.2  86220.8  74662.7  75336.3  76018.0  76707.8  77405.9
 U, KJ/KG         67789.4  68504.7  69228.3  58883.0  59481.0  60086.4  60699.2  61319.6
 G, KJ/KG       -292262.1-293304.3-294348.7-278431.1-279440.9-280452.6-281466.3-282481.9
 S, KJ/(KG)(K)   104.1079 104.3291 104.5521 100.8839 101.0761 101.2700 101.4657 101.6632

 M, (1/n)           1.790    1.785    1.781    1.844    1.841    1.837    1.833    1.830
 (dLV/dLP)t      -1.05524 -1.05623 -1.05723 -1.04222 -1.04307 -1.04394 -1.04481 -1.04570
 (dLV/dLT)p        1.8479   1.8608   1.8737   1.6696   1.6813   1.6930   1.7049   1.7168
 Cp, KJ/(KG)(K)   79.6992  80.6089  81.5232  66.9572  67.7632  68.5756  69.3944  70.2195
 GAMMAs            1.1680   1.1680   1.1680   1.1702   1.1701   1.1699   1.1698   1.1696
 SON VEL,M/SEC     4432.2   4443.5   4454.9   4297.2   4307.2   4317.3   4327.4   4337.6

 TRANSPORT PROPERTIES (GASES ONLY)
   CONDUCTIVITY IN UNITS OF MILLIWATTS/(CM)(K)

 VISC,MILLIPOISE  0.58569  0.58773  0.58977  0.55975  0.56177  0.56379  0.56581  0.56784

  WITH EQUILIBRIUM REACTIONS

 Cp, KJ/(KG)(K)   79.6992  80.6089  81.5232  66.9572  67.7632  68.5756  69.3944  70.2195
 CONDUCTIVITY     97.1625  98.4298  99.7002  79.5526  80.7159  81.8868  83.0649  84.2501
 PRANDTL NUMBER    0.4804   0.4813   0.4822   0.4711   0.4716   0.4721   0.4727   0.4733

  WITH FROZEN REACTIONS

 Cp, KJ/(KG)(K)   19.2349  19.2475  19.2602  19.0759  19.0884  19.1009  19.1134  19.1259
 CONDUCTIVITY     16.1622  16.2253  16.2881  15.3486  15.4128  15.4770  15.5412  15.6054
 PRANDTL NUMBER    0.6970   0.6972   0.6974   0.6957   0.6957   0.6958   0.6959   0.6959

 MASS FRACTIONS

 *H               0.12648  0.12914  0.13184  0.09310  0.09521  0.09735  0.09953  0.10174
 *H2              0.87352  0.87086  0.86816  0.90690  0.90479  0.90265  0.90047  0.89826

  * THERMODYNAMIC PROPERTIES FITTED TO 20000.K

 NOTE. WEIGHT FRACTION OF FUEL IN TOTAL FUELS AND OF OXIDANT IN TOTAL OXIDANTS









               THERMODYNAMIC EQUILIBRIUM PROPERTIES AT ASSIGNED

                           TEMPERATURE AND PRESSURE

 CASE =                

             REACTANT                    WT FRACTION      ENERGY      TEMP
                                          (SEE NOTE)     KJ/KG-MOL      K  
 FUEL        H2                           1.0000000         0.000      0.000
 OXIDANT     H2                           1.0000000         0.000      0.000

 O/F=    1.00000  %FUEL= 50.000000  R,EQ.RATIO= 0.000000  PHI,EQ.RATIO=-1.000000

 THERMODYNAMIC PROPERTIES

 P, BAR            10.000   10.000   10.000   10.000   10.000   10.000   10.000   10.000
 T, K             3550.00  3560.00  3570.00  3580.00  3590.00  3600.00  3610.00  3620.00
 RHO, KG/CU M    6.1863-2 6.1562-2 6.1261-2 6.0961-2 6.0660-2 6.0360-2 6.0060-2 5.9760-2
 H, KJ/KG         78112.2  78826.9  79550.0  80281.6  81021.6  81770.3  82527.5  83293.5
 U, KJ/KG         61947.6  62583.2  63226.5  63877.6  64536.4  65203.0  65877.5  66560.0
 G, KJ/KG       -283499.5-284519.2-285540.8-286564.5-287590.2-288618.1-289648.0-290680.0
 S, KJ/(KG)(K)   101.8625 102.0635 102.2663 102.4710 102.6774 102.8856 103.0957 103.3076

 M, (1/n)           1.826    1.822    1.818    1.815    1.811    1.807    1.803    1.799
 (dLV/dLP)t      -1.04659 -1.04749 -1.04840 -1.04932 -1.05025 -1.05119 -1.05213 -1.05308
 (dLV/dLT)p        1.7288   1.7409   1.7530   1.7652   1.7775   1.7899   1.8023   1.8147
 Cp, KJ/(KG)(K)   71.0507  71.8879  72.7310  73.5798  74.4343  75.2942  76.1595  77.0299
 GAMMAs            1.1695   1.1694   1.1693   1.1692   1.1691   1.1691   1.1690   1.1690
 SON VEL,M/SEC     4348.0   4358.4   4368.9   4379.5   4390.2   4400.9   4411.8   4422.8

 TRANSPORT PROPERTIES (GASES ONLY)
   CONDUCTIVITY IN UNITS OF MILLIWATTS/(CM)(K)

 VISC,MILLIPOISE  0.56987  0.57190  0.57394  0.57597  0.57801  0.58005  0.58209  0.58413

  WITH EQUILIBRIUM REACTIONS

 Cp, KJ/(KG)(K)   71.0507  71.8879  72.7310  73.5798  74.4343  75.2942  76.1595  77.0299
 CONDUCTIVITY     85.4420  86.6404  87.8450  89.0555  90.2715  91.4927  92.7189  93.9496
 PRANDTL NUMBER    0.4739   0.4745   0.4752   0.4759   0.4766   0.4774   0.4781   0.4789

  WITH FROZEN REACTIONS

 Cp, KJ/(KG)(K)   19.1384  19.1509  19.1634  19.1759  19.1884  19.2009  19.2133  19.2258
 CONDUCTIVITY     15.6696  15.7337  15.7978  15.8617  15.9256  15.9894  16.0530  16.1165
 PRANDTL NUMBER    0.6960   0.6961   0.6962   0.6963   0.6964   0.6966   0.6967   0.6968

 MASS FRACTIONS

 *H               0.10399  0.10627  0.10859  0.11095  0.11334  0.11577  0.11824  0.12074
 *H2              0.89601  0.89373  0.89141  0.88905  0.88666  0.88423  0.88176  0.87926

  * THERMODYNAMIC PROPERTIES FITTED TO 20000.K

 NOTE. WEIGHT FRACTION OF FUEL IN TOTAL FUELS AND OF OXIDANT IN TOTAL OXIDANTS









               THERMODYNAMIC EQUILIBRIUM PROPERTIES AT ASSIGNED

                           TEMPERATURE AND PRESSURE

 CASE =                

             REACTANT                    WT FRACTION      ENERGY      TEMP
                                          (SEE NOTE)     KJ/KG-MOL      K  
 FUEL        H2                           1.0000000         0.000      0.000
 OXIDANT     H2                           1.0000000         0.000      0.000

 O/F=    1.00000  %FUEL= 50.000000  R,EQ.RATIO= 0.000000  PHI,EQ.RATIO=-1.000000

 THERMODYNAMIC PROPERTIES

 P, BAR            10.000   10.000   11.000   11.000   11.000   11.000   11.000   11.000
 T, K             3630.00  3640.00  3500.00  3510.00  3520.00  3530.00  3540.00  3550.00
 RHO, KG/CU M    5.9461-2 5.9162-2 6.9985-2 6.9657-2 6.9329-2 6.9001-2 6.8674-2 6.8346-2
 H, KJ/KG         84068.1  84851.6  73678.7  74330.3  74989.7  75656.9  76331.9  77014.9
 U, KJ/KG         67250.4  67948.8  57961.0  58538.6  59123.2  59715.1  60314.1  60920.5
 G, KJ/KG       -291714.1-292750.4-276930.1-277932.7-278937.3-279943.7-280952.0-281962.3
 S, KJ/(KG)(K)   103.5213 103.7368 100.1739 100.3598 100.5474 100.7367 100.9277 101.1203

 M, (1/n)           1.795    1.791    1.851    1.848    1.845    1.841    1.838    1.834
 (dLV/dLP)t      -1.05404 -1.05501 -1.04046 -1.04128 -1.04212 -1.04296 -1.04382 -1.04468
 (dLV/dLT)p        1.8272   1.8398   1.6417   1.6530   1.6643   1.6758   1.6873   1.6989
 Cp, KJ/(KG)(K)   77.9053  78.7856  64.7756  65.5479  66.3267  67.1116  67.9028  68.7000
 GAMMAs            1.1689   1.1689   1.1715   1.1713   1.1711   1.1710   1.1708   1.1707
 SON VEL,M/SEC     4433.8   4445.0   4291.1   4300.8   4310.7   4320.6   4330.6   4340.7

 TRANSPORT PROPERTIES (GASES ONLY)
   CONDUCTIVITY IN UNITS OF MILLIWATTS/(CM)(K)

 VISC,MILLIPOISE  0.58616  0.58820  0.55828  0.56028  0.56229  0.56430  0.56632  0.56834

  WITH EQUILIBRIUM REACTIONS

 Cp, KJ/(KG)(K)   77.9053  78.7856  64.7756  65.5479  66.3266  67.1116  67.9028  68.7000
 CONDUCTIVITY     95.1845  96.4233  76.8330  77.9587  79.0922  80.2331  81.3814  82.5367
 PRANDTL NUMBER    0.4798   0.4806   0.4707   0.4711   0.4715   0.4720   0.4725   0.4731

  WITH FROZEN REACTIONS

 Cp, KJ/(KG)(K)   19.2383  19.2508  19.0685  19.0809  19.0933  19.1057  19.1181  19.1304
 CONDUCTIVITY     16.1798  16.2430  15.3025  15.3665  15.4305  15.4946  15.5586  15.6227
 PRANDTL NUMBER    0.6970   0.6971   0.6957   0.6957   0.6958   0.6958   0.6959   0.6959

 MASS FRACTIONS

 *H               0.12329  0.12586  0.08880  0.09081  0.09286  0.09494  0.09705  0.09920
 *H2              0.87671  0.87414  0.91120  0.90919  0.90714  0.90506  0.90295  0.90080

  * THERMODYNAMIC PROPERTIES FITTED TO 20000.K

 NOTE. WEIGHT FRACTION OF FUEL IN TOTAL FUELS AND OF OXIDANT IN TOTAL OXIDANTS









               THERMODYNAMIC EQUILIBRIUM PROPERTIES AT ASSIGNED

                           TEMPERATURE AND PRESSURE

 CASE =                

             REACTANT                    WT FRACTION      ENERGY      TEMP
                                          (SEE NOTE)     KJ/KG-MOL      K  
 FUEL        H2                           1.0000000         0.000      0.000
 OXIDANT     H2                           1.0000000         0.000      0.000

 O/F=    1.00000  %FUEL= 50.000000  R,EQ.RATIO= 0.000000  PHI,EQ.RATIO=-1.000000

 THERMODYNAMIC PROPERTIES

 P, BAR            11.000   11.000   11.000   11.000   11.000   11.000   11.000   11.000
 T, K             3560.00  3570.00  3580.00  3590.00  3600.00  3610.00  3620.00  3630.00
 RHO, KG/CU M    6.8019-2 6.7693-2 6.7366-2 6.7040-2 6.6714-2 6.6388-2 6.6063-2 6.5738-2
 H, KJ/KG         77705.9  78405.0  79112.2  79827.6  80551.2  81283.1  82023.3  82771.9
 U, KJ/KG         61534.1  62155.1  62783.6  63419.5  64062.9  64713.9  65372.5  66038.8
 G, KJ/KG       -282974.4-283988.6-285004.7-286022.7-287042.8-288064.9-289089.1-290115.3
 S, KJ/(KG)(K)   101.3147 101.5108 101.7086 101.9082 102.1094 102.3125 102.5172 102.7237

 M, (1/n)           1.830    1.827    1.823    1.819    1.815    1.812    1.808    1.804
 (dLV/dLP)t      -1.04555 -1.04643 -1.04732 -1.04822 -1.04913 -1.05004 -1.05097 -1.05190
 (dLV/dLT)p        1.7106   1.7224   1.7342   1.7461   1.7581   1.7701   1.7822   1.7944
 Cp, KJ/(KG)(K)   69.5031  70.3121  71.1269  71.9473  72.7731  73.6043  74.4408  75.2823
 GAMMAs            1.1706   1.1704   1.1703   1.1702   1.1701   1.1701   1.1700   1.1699
 SON VEL,M/SEC     4350.9   4361.1   4371.5   4381.9   4392.5   4403.1   4413.8   4424.6

 TRANSPORT PROPERTIES (GASES ONLY)
   CONDUCTIVITY IN UNITS OF MILLIWATTS/(CM)(K)

 VISC,MILLIPOISE  0.57036  0.57238  0.57441  0.57644  0.57847  0.58050  0.58254  0.58457

  WITH EQUILIBRIUM REACTIONS

 Cp, KJ/(KG)(K)   69.5031  70.3121  71.1269  71.9473  72.7731  73.6043  74.4408  75.2823
 CONDUCTIVITY     83.6987  84.8673  86.0421  87.2229  88.4093  89.6011  90.7980  91.9997
 PRANDTL NUMBER    0.4736   0.4742   0.4748   0.4755   0.4762   0.4769   0.4776   0.4783

  WITH FROZEN REACTIONS

 Cp, KJ/(KG)(K)   19.1428  19.1552  19.1676  19.1799  19.1923  19.2047  19.2170  19.2294
 CONDUCTIVITY     15.6867  15.7507  15.8147  15.8786  15.9424  16.0061  16.0697  16.1332
 PRANDTL NUMBER    0.6960   0.6961   0.6962   0.6963   0.6964   0.6965   0.6966   0.6968

 MASS FRACTIONS

 *H               0.10138  0.10360  0.10585  0.10813  0.11045  0.11281  0.11520  0.11763
 *H2              0.89862  0.89640  0.89415  0.89187  0.88955  0.88719  0.88480  0.88237

  * THERMODYNAMIC PROPERTIES FITTED TO 20000.K

 NOTE. WEIGHT FRACTION OF FUEL IN TOTAL FUELS AND OF OXIDANT IN TOTAL OXIDANTS









               THERMODYNAMIC EQUILIBRIUM PROPERTIES AT ASSIGNED

                           TEMPERATURE AND PRESSURE

 CASE =                

             REACTANT                    WT FRACTION      ENERGY      TEMP
                                          (SEE NOTE)     KJ/KG-MOL      K  
 FUEL        H2                           1.0000000         0.000      0.000
 OXIDANT     H2                           1.0000000         0.000      0.000

 O/F=    1.00000  %FUEL= 50.000000  R,EQ.RATIO= 0.000000  PHI,EQ.RATIO=-1.000000

 THERMODYNAMIC PROPERTIES

 P, BAR            11.000
 T, K             3640.00
 RHO, KG/CU M    6.5413-2
 H, KJ/KG         83528.9
 U, KJ/KG         66712.8
 G, KJ/KG       -291143.6
 S, KJ/(KG)(K)   102.9320

 M, (1/n)           1.800
 (dLV/dLP)t      -1.05284
 (dLV/dLT)p        1.8066
 Cp, KJ/(KG)(K)   76.1288
 GAMMAs            1.1699
 SON VEL,M/SEC     4435.5

 TRANSPORT PROPERTIES (GASES ONLY)
   CONDUCTIVITY IN UNITS OF MILLIWATTS/(CM)(K)

 VISC,MILLIPOISE  0.58660

  WITH EQUILIBRIUM REACTIONS

 Cp, KJ/(KG)(K)   76.1288
 CONDUCTIVITY     93.2057
 PRANDTL NUMBER    0.4791

  WITH FROZEN REACTIONS

 Cp, KJ/(KG)(K)   19.2417
 CONDUCTIVITY     16.1966
 PRANDTL NUMBER    0.6969

 MASS FRACTIONS

 *H               0.12009
 *H2              0.87991

  * THERMODYNAMIC PROPERTIES FITTED TO 20000.K

 NOTE. WEIGHT FRACTION OF FUEL IN TOTAL FUELS AND OF OXIDANT IN TOTAL OXIDANTS



  
