
 *******************************************************************************

         NASA-GLENN CHEMICAL EQUILIBRIUM PROGRAM CEA2, MAY 21, 2004
                   BY  BONNIE MCBRIDE AND SANFORD GORDON
      REFS: NASA RP-1311, PART I, 1994 AND NASA RP-1311, PART II, 1996

 *******************************************************************************



  prob tp ions
  p,bar= 0.0049,0.0054,0.006,0.0067,0.0074,0.00825,0.0091,0.01,0.011,0.012,0.0132
 ,0.0148,0.0165,0.018,0.02
  t,k= 1800,1810,1820,1830,1840,1850,1860,1870,1880,1890,1900,1910,1920,1930,1940
  
  reac
  na H2                wt%=100.0000
  
  output short
  output siunits
  output transport
  
 end





               THERMODYNAMIC EQUILIBRIUM PROPERTIES AT ASSIGNED

                           TEMPERATURE AND PRESSURE

 CASE =                

             REACTANT                    WT FRACTION      ENERGY      TEMP
                                          (SEE NOTE)     KJ/KG-MOL      K  
             H2                           1.0000000         0.000      0.000

 O/F=    0.00000  %FUEL=100.000000  R,EQ.RATIO= 0.000000  PHI,EQ.RATIO= 0.000000

 THERMODYNAMIC PROPERTIES

 P, BAR           0.00490  0.00490  0.00490  0.00490  0.00490  0.00490  0.00490  0.00490
 T, K             1800.00  1810.00  1820.00  1830.00  1840.00  1850.00  1860.00  1870.00
 RHO, KG/CU M    6.5833-5 6.5454-5 6.5079-5 6.4707-5 6.4337-5 6.3971-5 6.3607-5 6.3245-5
 H, KJ/KG         23476.6  23693.1  23913.7  24138.5  24367.6  24601.5  24840.3  25084.4
 U, KJ/KG         16033.4  16207.0  16384.4  16565.8  16751.5  16941.8  17136.7  17336.8
 G, KJ/KG       -181672.8-182812.6-183954.1-185096.8-186240.8-187386.1-188532.6-189680.4
 S, KJ/(KG)(K)   113.9719 114.0916 114.2131 114.3362 114.4611 114.5879 114.7166 114.8475

 M, (1/n)           2.011    2.010    2.010    2.009    2.009    2.008    2.008    2.007
 (dLV/dLP)t      -1.00127 -1.00139 -1.00151 -1.00164 -1.00177 -1.00192 -1.00208 -1.00225
 (dLV/dLT)p        1.0386   1.0417   1.0451   1.0486   1.0524   1.0565   1.0608   1.0654
 Cp, KJ/(KG)(K)   21.4712  21.8551  22.2619  22.6924  23.1480  23.6297  24.1388  24.6766
 GAMMAs            1.2602   1.2563   1.2523   1.2483   1.2442   1.2402   1.2361   1.2320
 SON VEL,M/SEC     3062.6   3066.7   3070.6   3074.5   3078.3   3082.1   3085.8   3089.5

 TRANSPORT PROPERTIES (GASES ONLY)
   CONDUCTIVITY IN UNITS OF MILLIWATTS/(CM)(K)

 VISC,MILLIPOISE  0.31122  0.31254  0.31386  0.31519  0.31652  0.31786  0.31921  0.32057

  WITH EQUILIBRIUM REACTIONS

 Cp, KJ/(KG)(K)   21.4712  21.8551  22.2619  22.6924  23.1480  23.6297  24.1388  24.6766
 CONDUCTIVITY     11.3914  11.7532  12.1373  12.5446  12.9761  13.4332  13.9172  14.4294
 PRANDTL NUMBER    0.5866   0.5812   0.5757   0.5702   0.5646   0.5591   0.5537   0.5482

  WITH FROZEN REACTIONS

 Cp, KJ/(KG)(K)   16.6476  16.6675  16.6875  16.7074  16.7272  16.7471  16.7669  16.7867
 CONDUCTIVITY      7.3776   7.4175   7.4581   7.4989   7.5401   7.5816   7.6234   7.6655
 PRANDTL NUMBER    0.7023   0.7023   0.7023   0.7022   0.7022   0.7021   0.7021   0.7020

 MOLE FRACTIONS

 *H               0.00511  0.00555  0.00603  0.00654  0.00709  0.00768  0.00831  0.00898
 *H2              0.99489  0.99445  0.99397  0.99346  0.99291  0.99232  0.99169  0.99102

  * THERMODYNAMIC PROPERTIES FITTED TO 20000.K

 NOTE. WEIGHT FRACTION OF FUEL IN TOTAL FUELS AND OF OXIDANT IN TOTAL OXIDANTS









               THERMODYNAMIC EQUILIBRIUM PROPERTIES AT ASSIGNED

                           TEMPERATURE AND PRESSURE

 CASE =                

             REACTANT                    WT FRACTION      ENERGY      TEMP
                                          (SEE NOTE)     KJ/KG-MOL      K  
             H2                           1.0000000         0.000      0.000

 O/F=    0.00000  %FUEL=100.000000  R,EQ.RATIO= 0.000000  PHI,EQ.RATIO= 0.000000

 THERMODYNAMIC PROPERTIES

 P, BAR           0.00490  0.00490  0.00490  0.00490  0.00490  0.00490  0.00490  0.00540
 T, K             1880.00  1890.00  1900.00  1910.00  1920.00  1930.00  1940.00  1800.00
 RHO, KG/CU M    6.2886-5 6.2529-5 6.2174-5 6.1822-5 6.1471-5 6.1122-5 6.0774-5 7.2559-5
 H, KJ/KG         25334.0  25589.4  25850.9  26119.0  26393.8  26675.9  26965.6  23449.3
 U, KJ/KG         17542.1  17753.0  17969.9  18193.0  18422.6  18659.1  18903.0  16007.1
 G, KJ/KG       -190829.5-191980.0-193131.9-194285.1-195439.8-196595.9-197753.5-180949.1
 S, KJ/(KG)(K)   114.9806 115.1161 115.2541 115.3948 115.5383 115.6849 115.8346 113.5547

 M, (1/n)           2.006    2.005    2.005    2.004    2.003    2.002    2.001    2.011
 (dLV/dLP)t      -1.00243 -1.00262 -1.00282 -1.00304 -1.00327 -1.00352 -1.00379 -1.00122
 (dLV/dLT)p        1.0703   1.0754   1.0809   1.0868   1.0930   1.0995   1.1064   1.0368
 Cp, KJ/(KG)(K)   25.2442  25.8432  26.4747  27.1402  27.8412  28.5791  29.3555  21.2419
 GAMMAs            1.2280   1.2239   1.2199   1.2159   1.2119   1.2080   1.2041   1.2626
 SON VEL,M/SEC     3093.2   3096.9   3100.6   3104.4   3108.1   3111.9   3115.8   3065.4

 TRANSPORT PROPERTIES (GASES ONLY)
   CONDUCTIVITY IN UNITS OF MILLIWATTS/(CM)(K)

 VISC,MILLIPOISE  0.32193  0.32330  0.32469  0.32608  0.32748  0.32889  0.33032  0.31118

  WITH EQUILIBRIUM REACTIONS

 Cp, KJ/(KG)(K)   25.2442  25.8432  26.4747  27.1402  27.8412  28.5791  29.3555  21.2419
 CONDUCTIVITY     14.9711  15.5438  16.1490  16.7882  17.4629  18.1746  18.9252  11.1995
 PRANDTL NUMBER    0.5428   0.5375   0.5323   0.5271   0.5221   0.5172   0.5124   0.5902

  WITH FROZEN REACTIONS

 Cp, KJ/(KG)(K)   16.8065  16.8263  16.8461  16.8659  16.8857  16.9056  16.9254  16.6471
 CONDUCTIVITY      7.7080   7.7509   7.7942   7.8379   7.8820   7.9266   7.9717   7.3755
 PRANDTL NUMBER    0.7019   0.7019   0.7018   0.7017   0.7016   0.7014   0.7013   0.7024

 MOLE FRACTIONS

 *H               0.00970  0.01047  0.01129  0.01216  0.01310  0.01409  0.01515  0.00487
 *H2              0.99030  0.98953  0.98871  0.98784  0.98690  0.98591  0.98485  0.99513

  * THERMODYNAMIC PROPERTIES FITTED TO 20000.K

 NOTE. WEIGHT FRACTION OF FUEL IN TOTAL FUELS AND OF OXIDANT IN TOTAL OXIDANTS









               THERMODYNAMIC EQUILIBRIUM PROPERTIES AT ASSIGNED

                           TEMPERATURE AND PRESSURE

 CASE =                

             REACTANT                    WT FRACTION      ENERGY      TEMP
                                          (SEE NOTE)     KJ/KG-MOL      K  
             H2                           1.0000000         0.000      0.000

 O/F=    0.00000  %FUEL=100.000000  R,EQ.RATIO= 0.000000  PHI,EQ.RATIO= 0.000000

 THERMODYNAMIC PROPERTIES

 P, BAR           0.00540  0.00540  0.00540  0.00540  0.00540  0.00540  0.00540  0.00540
 T, K             1810.00  1820.00  1830.00  1840.00  1850.00  1860.00  1870.00  1880.00
 RHO, KG/CU M    7.2143-5 7.1730-5 7.1321-5 7.0914-5 7.0511-5 7.0111-5 6.9714-5 6.9319-5
 H, KJ/KG         23663.5  23881.5  24103.5  24329.8  24560.5  24795.9  25036.3  25282.0
 U, KJ/KG         16178.4  16353.3  16532.1  16715.0  16902.1  17093.8  17290.4  17492.0
 G, KJ/KG       -182085.2-183222.6-184361.1-185500.9-186641.9-187784.1-188927.7-190072.5
 S, KJ/(KG)(K)   113.6733 113.7935 113.9151 114.0384 114.1634 114.2903 114.4193 114.5503

 M, (1/n)           2.011    2.010    2.010    2.009    2.009    2.008    2.007    2.007
 (dLV/dLP)t      -1.00132 -1.00144 -1.00156 -1.00169 -1.00183 -1.00198 -1.00214 -1.00231
 (dLV/dLT)p        1.0398   1.0429   1.0463   1.0500   1.0538   1.0579   1.0623   1.0669
 Cp, KJ/(KG)(K)   21.6086  21.9970  22.4080  22.8429  23.3026  23.7885  24.3016  24.8433
 GAMMAs            1.2588   1.2549   1.2509   1.2469   1.2429   1.2389   1.2349   1.2309
 SON VEL,M/SEC     3069.5   3073.6   3077.5   3081.4   3085.3   3089.0   3092.8   3096.5

 TRANSPORT PROPERTIES (GASES ONLY)
   CONDUCTIVITY IN UNITS OF MILLIWATTS/(CM)(K)

 VISC,MILLIPOISE  0.31249  0.31381  0.31514  0.31647  0.31780  0.31915  0.32050  0.32186

  WITH EQUILIBRIUM REACTIONS

 Cp, KJ/(KG)(K)   21.6086  21.9970  22.4080  22.8429  23.3026  23.7885  24.3016  24.8433
 CONDUCTIVITY     11.5464  11.9142  12.3040  12.7170  13.1544  13.6173  14.1072  14.6252
 PRANDTL NUMBER    0.5848   0.5794   0.5739   0.5685   0.5630   0.5575   0.5521   0.5467

  WITH FROZEN REACTIONS

 Cp, KJ/(KG)(K)   16.6670  16.6869  16.7067  16.7266  16.7464  16.7661  16.7859  16.8056
 CONDUCTIVITY      7.4157   7.4562   7.4969   7.5379   7.5791   7.6207   7.6627   7.7049
 PRANDTL NUMBER    0.7023   0.7023   0.7023   0.7022   0.7022   0.7021   0.7021   0.7020

 MOLE FRACTIONS

 *H               0.00529  0.00574  0.00623  0.00675  0.00732  0.00792  0.00856  0.00924
 *H2              0.99471  0.99426  0.99377  0.99325  0.99268  0.99208  0.99144  0.99076

  * THERMODYNAMIC PROPERTIES FITTED TO 20000.K

 NOTE. WEIGHT FRACTION OF FUEL IN TOTAL FUELS AND OF OXIDANT IN TOTAL OXIDANTS









               THERMODYNAMIC EQUILIBRIUM PROPERTIES AT ASSIGNED

                           TEMPERATURE AND PRESSURE

 CASE =                

             REACTANT                    WT FRACTION      ENERGY      TEMP
                                          (SEE NOTE)     KJ/KG-MOL      K  
             H2                           1.0000000         0.000      0.000

 O/F=    0.00000  %FUEL=100.000000  R,EQ.RATIO= 0.000000  PHI,EQ.RATIO= 0.000000

 THERMODYNAMIC PROPERTIES

 P, BAR           0.00540  0.00540  0.00540  0.00540  0.00540  0.00540  0.00600  0.00600
 T, K             1890.00  1900.00  1910.00  1920.00  1930.00  1940.00  1800.00  1810.00
 RHO, KG/CU M    6.8927-5 6.8537-5 6.8150-5 6.7764-5 6.7381-5 6.7000-5 8.0631-5 8.0170-5
 H, KJ/KG         25533.3  25790.4  26053.7  26323.6  26600.3  26884.2  23421.2  23633.0
 U, KJ/KG         17698.9  17911.5  18130.0  18354.8  18586.2  18824.5  15979.9  16148.8
 G, KJ/KG       -191218.7-192366.2-193515.1-194665.4-195817.1-196970.2-180165.0-181296.6
 S, KJ/(KG)(K)   114.6836 114.8193 114.9575 115.0984 115.2421 115.3889 113.1035 113.2208

 M, (1/n)           2.006    2.005    2.004    2.003    2.002    2.001    2.011    2.011
 (dLV/dLP)t      -1.00249 -1.00269 -1.00290 -1.00312 -1.00336 -1.00361 -1.00115 -1.00125
 (dLV/dLT)p        1.0719   1.0771   1.0827   1.0886   1.0948   1.1014   1.0349   1.0377
 Cp, KJ/(KG)(K)   25.4147  26.0171  26.6520  27.3206  28.0244  28.7648  21.0056  21.3545
 GAMMAs            1.2268   1.2228   1.2189   1.2149   1.2110   1.2071   1.2652   1.2614
 SON VEL,M/SEC     3100.3   3104.0   3107.7   3111.5   3115.3   3119.2   3068.4   3072.6

 TRANSPORT PROPERTIES (GASES ONLY)
   CONDUCTIVITY IN UNITS OF MILLIWATTS/(CM)(K)

 VISC,MILLIPOISE  0.32322  0.32460  0.32598  0.32738  0.32878  0.33020  0.31114  0.31245

  WITH EQUILIBRIUM REACTIONS

 Cp, KJ/(KG)(K)   25.4147  26.0171  26.6520  27.3206  28.0244  28.7648  21.0056  21.3545
 CONDUCTIVITY     15.1728  15.7514  16.3624  17.0072  17.6875  18.4047  11.0021  11.3332
 PRANDTL NUMBER    0.5414   0.5361   0.5310   0.5259   0.5209   0.5161   0.5940   0.5887

  WITH FROZEN REACTIONS

 Cp, KJ/(KG)(K)   16.8254  16.8451  16.8648  16.8846  16.9043  16.9240  16.6466  16.6665
 CONDUCTIVITY      7.7476   7.7906   7.8340   7.8778   7.9221   7.9669   7.3739   7.4139
 PRANDTL NUMBER    0.7019   0.7019   0.7018   0.7017   0.7016   0.7014   0.7024   0.7024

 MOLE FRACTIONS

 *H               0.00998  0.01076  0.01159  0.01248  0.01343  0.01443  0.00462  0.00502
 *H2              0.99002  0.98924  0.98841  0.98752  0.98657  0.98557  0.99538  0.99498

  * THERMODYNAMIC PROPERTIES FITTED TO 20000.K

 NOTE. WEIGHT FRACTION OF FUEL IN TOTAL FUELS AND OF OXIDANT IN TOTAL OXIDANTS









               THERMODYNAMIC EQUILIBRIUM PROPERTIES AT ASSIGNED

                           TEMPERATURE AND PRESSURE

 CASE =                

             REACTANT                    WT FRACTION      ENERGY      TEMP
                                          (SEE NOTE)     KJ/KG-MOL      K  
             H2                           1.0000000         0.000      0.000

 O/F=    0.00000  %FUEL=100.000000  R,EQ.RATIO= 0.000000  PHI,EQ.RATIO= 0.000000

 THERMODYNAMIC PROPERTIES

 P, BAR           0.00600  0.00600  0.00600  0.00600  0.00600  0.00600  0.00600  0.00600
 T, K             1820.00  1830.00  1840.00  1850.00  1860.00  1870.00  1880.00  1890.00
 RHO, KG/CU M    7.9712-5 7.9258-5 7.8807-5 7.8361-5 7.7917-5 7.7477-5 7.7039-5 7.6605-5
 H, KJ/KG         23848.3  24067.5  24290.7  24518.2  24750.1  24986.8  25228.5  25475.5
 U, KJ/KG         16321.2  16497.3  16677.2  16861.3  17049.6  17242.5  17440.3  17643.1
 G, KJ/KG       -182429.4-183563.4-184698.6-185835.1-186972.7-188111.7-189251.9-190393.4
 S, KJ/(KG)(K)   113.3394 113.4595 113.5812 113.7044 113.8295 113.9564 114.0853 114.2163

 M, (1/n)           2.010    2.010    2.009    2.009    2.008    2.008    2.007    2.006
 (dLV/dLP)t      -1.00136 -1.00148 -1.00160 -1.00174 -1.00188 -1.00203 -1.00219 -1.00237
 (dLV/dLT)p        1.0407   1.0440   1.0474   1.0511   1.0550   1.0591   1.0635   1.0682
 Cp, KJ/(KG)(K)   21.7239  22.1148  22.5283  22.9655  23.4274  23.9151  24.4299  24.9729
 GAMMAs            1.2576   1.2537   1.2498   1.2459   1.2419   1.2380   1.2340   1.2300
 SON VEL,M/SEC     3076.7   3080.8   3084.7   3088.6   3092.5   3096.3   3100.1   3103.8

 TRANSPORT PROPERTIES (GASES ONLY)
   CONDUCTIVITY IN UNITS OF MILLIWATTS/(CM)(K)

 VISC,MILLIPOISE  0.31376  0.31508  0.31641  0.31774  0.31908  0.32042  0.32178  0.32314

  WITH EQUILIBRIUM REACTIONS

 Cp, KJ/(KG)(K)   21.7239  22.1148  22.5283  22.9655  23.4274  23.9151  24.4299  24.9729
 CONDUCTIVITY     11.6841  12.0559  12.4498  12.8667  13.3080  13.7749  14.2685  14.7901
 PRANDTL NUMBER    0.5834   0.5780   0.5726   0.5671   0.5617   0.5563   0.5509   0.5456

  WITH FROZEN REACTIONS

 Cp, KJ/(KG)(K)   16.6863  16.7061  16.7259  16.7456  16.7653  16.7850  16.8047  16.8244
 CONDUCTIVITY      7.4542   7.4948   7.5356   7.5766   7.6180   7.6597   7.7017   7.7441
 PRANDTL NUMBER    0.7024   0.7023   0.7023   0.7023   0.7022   0.7022   0.7021   0.7020

 MOLE FRACTIONS

 *H               0.00545  0.00591  0.00641  0.00694  0.00751  0.00812  0.00877  0.00947
 *H2              0.99455  0.99409  0.99359  0.99306  0.99249  0.99188  0.99123  0.99053

  * THERMODYNAMIC PROPERTIES FITTED TO 20000.K

 NOTE. WEIGHT FRACTION OF FUEL IN TOTAL FUELS AND OF OXIDANT IN TOTAL OXIDANTS









               THERMODYNAMIC EQUILIBRIUM PROPERTIES AT ASSIGNED

                           TEMPERATURE AND PRESSURE

 CASE =                

             REACTANT                    WT FRACTION      ENERGY      TEMP
                                          (SEE NOTE)     KJ/KG-MOL      K  
             H2                           1.0000000         0.000      0.000

 O/F=    0.00000  %FUEL=100.000000  R,EQ.RATIO= 0.000000  PHI,EQ.RATIO= 0.000000

 THERMODYNAMIC PROPERTIES

 P, BAR           0.00600  0.00600  0.00600  0.00600  0.00600  0.00670  0.00670  0.00670
 T, K             1900.00  1910.00  1920.00  1930.00  1940.00  1800.00  1810.00  1820.00
 RHO, KG/CU M    7.6173-5 7.5744-5 7.5318-5 7.4894-5 7.4472-5 9.0049-5 8.9535-5 8.9025-5
 H, KJ/KG         25728.1  25986.5  26251.1  26522.3  26800.3  23393.3  23602.7  23815.4
 U, KJ/KG         17851.3  18065.1  18284.9  18511.0  18743.6  15952.9  16119.5  16289.4
 G, KJ/KG       -191536.2-192680.4-193825.9-194972.9-196121.2-179344.0-180470.8-181598.9
 S, KJ/(KG)(K)   114.3496 114.4853 114.6235 114.7643 114.9080 112.6318 112.7478 112.8650

 M, (1/n)           2.006    2.005    2.004    2.003    2.002    2.011    2.011    2.011
 (dLV/dLP)t      -1.00255 -1.00275 -1.00296 -1.00319 -1.00342 -1.00109 -1.00119 -1.00129
 (dLV/dLT)p        1.0732   1.0785   1.0841   1.0900   1.0962   1.0330   1.0357   1.0386
 Cp, KJ/(KG)(K)   25.5454  26.1486  26.7839  27.4525  28.1558  20.7712  21.1023  21.4529
 GAMMAs            1.2260   1.2221   1.2182   1.2143   1.2104   1.2679   1.2642   1.2604
 SON VEL,M/SEC     3107.6   3111.4   3115.1   3118.9   3122.8   3071.4   3075.7   3079.9

 TRANSPORT PROPERTIES (GASES ONLY)
   CONDUCTIVITY IN UNITS OF MILLIWATTS/(CM)(K)

 VISC,MILLIPOISE  0.32450  0.32588  0.32727  0.32866  0.33007  0.31110  0.31240  0.31372

  WITH EQUILIBRIUM REACTIONS

 Cp, KJ/(KG)(K)   25.5454  26.1486  26.7839  27.4525  28.1558  20.7712  21.1023  21.4529
 CONDUCTIVITY     15.3412  15.9231  16.5372  17.1849  17.8678  10.8061  11.1215  11.4557
 PRANDTL NUMBER    0.5403   0.5352   0.5300   0.5250   0.5201   0.5980   0.5928   0.5875

  WITH FROZEN REACTIONS

 Cp, KJ/(KG)(K)   16.8440  16.8637  16.8833  16.9030  16.9227  16.6461  16.6659  16.6857
 CONDUCTIVITY      7.7868   7.8300   7.8735   7.9174   7.9618   7.3723   7.4121   7.4523
 PRANDTL NUMBER    0.7019   0.7019   0.7018   0.7017   0.7016   0.7024   0.7024   0.7024

 MOLE FRACTIONS

 *H               0.01021  0.01100  0.01184  0.01274  0.01370  0.00437  0.00475  0.00516
 *H2              0.98979  0.98900  0.98816  0.98726  0.98630  0.99563  0.99525  0.99484

  * THERMODYNAMIC PROPERTIES FITTED TO 20000.K

 NOTE. WEIGHT FRACTION OF FUEL IN TOTAL FUELS AND OF OXIDANT IN TOTAL OXIDANTS









               THERMODYNAMIC EQUILIBRIUM PROPERTIES AT ASSIGNED

                           TEMPERATURE AND PRESSURE

 CASE =                

             REACTANT                    WT FRACTION      ENERGY      TEMP
                                          (SEE NOTE)     KJ/KG-MOL      K  
             H2                           1.0000000         0.000      0.000

 O/F=    0.00000  %FUEL=100.000000  R,EQ.RATIO= 0.000000  PHI,EQ.RATIO= 0.000000

 THERMODYNAMIC PROPERTIES

 P, BAR           0.00670  0.00670  0.00670  0.00670  0.00670  0.00670  0.00670  0.00670
 T, K             1830.00  1840.00  1850.00  1860.00  1870.00  1880.00  1890.00  1900.00
 RHO, KG/CU M    8.8519-5 8.8017-5 8.7519-5 8.7025-5 8.6534-5 8.6048-5 8.5564-5 8.5084-5
 H, KJ/KG         24031.8  24252.0  24476.2  24704.7  24937.6  25175.4  25418.1  25666.2
 U, KJ/KG         16462.8  16639.8  16820.7  17005.7  17195.1  17389.0  17587.7  17791.6
 G, KJ/KG       -182728.1-183858.6-184990.2-186123.1-187257.2-188392.6-189529.2-190667.1
 S, KJ/(KG)(K)   112.9836 113.1036 113.2251 113.3483 113.4732 113.6000 113.7287 113.8596

 M, (1/n)           2.010    2.010    2.009    2.009    2.008    2.008    2.007    2.006
 (dLV/dLP)t      -1.00140 -1.00152 -1.00164 -1.00178 -1.00192 -1.00208 -1.00224 -1.00242
 (dLV/dLT)p        1.0416   1.0449   1.0483   1.0520   1.0560   1.0601   1.0646   1.0693
 Cp, KJ/(KG)(K)   21.8239  22.2162  22.6309  23.0690  23.5316  24.0197  24.5346  25.0773
 GAMMAs            1.2566   1.2528   1.2489   1.2450   1.2411   1.2372   1.2333   1.2293
 SON VEL,M/SEC     3084.1   3088.1   3092.1   3096.0   3099.9   3103.7   3107.6   3111.3

 TRANSPORT PROPERTIES (GASES ONLY)
   CONDUCTIVITY IN UNITS OF MILLIWATTS/(CM)(K)

 VISC,MILLIPOISE  0.31503  0.31635  0.31768  0.31901  0.32035  0.32170  0.32305  0.32441

  WITH EQUILIBRIUM REACTIONS

 Cp, KJ/(KG)(K)   21.8239  22.2162  22.6309  23.0690  23.5316  24.0197  24.5346  25.0773
 CONDUCTIVITY     11.8097  12.1845  12.5812  13.0010  13.4449  13.9143  14.4102  14.9340
 PRANDTL NUMBER    0.5822   0.5768   0.5714   0.5661   0.5607   0.5553   0.5500   0.5448

  WITH FROZEN REACTIONS

 Cp, KJ/(KG)(K)   16.7055  16.7252  16.7449  16.7646  16.7842  16.8038  16.8234  16.8430
 CONDUCTIVITY      7.4926   7.5333   7.5741   7.6153   7.6568   7.6986   7.7407   7.7831
 PRANDTL NUMBER    0.7024   0.7024   0.7023   0.7023   0.7022   0.7022   0.7021   0.7020

 MOLE FRACTIONS

 *H               0.00560  0.00607  0.00657  0.00711  0.00769  0.00830  0.00896  0.00966
 *H2              0.99440  0.99393  0.99343  0.99289  0.99231  0.99170  0.99104  0.99034

  * THERMODYNAMIC PROPERTIES FITTED TO 20000.K

 NOTE. WEIGHT FRACTION OF FUEL IN TOTAL FUELS AND OF OXIDANT IN TOTAL OXIDANTS









               THERMODYNAMIC EQUILIBRIUM PROPERTIES AT ASSIGNED

                           TEMPERATURE AND PRESSURE

 CASE =                

             REACTANT                    WT FRACTION      ENERGY      TEMP
                                          (SEE NOTE)     KJ/KG-MOL      K  
             H2                           1.0000000         0.000      0.000

 O/F=    0.00000  %FUEL=100.000000  R,EQ.RATIO= 0.000000  PHI,EQ.RATIO= 0.000000

 THERMODYNAMIC PROPERTIES

 P, BAR           0.00670  0.00670  0.00670  0.00670  0.00740  0.00740  0.00740  0.00740
 T, K             1910.00  1920.00  1930.00  1940.00  1800.00  1810.00  1820.00  1830.00
 RHO, KG/CU M    8.4606-5 8.4132-5 8.3660-5 8.3191-5 9.9468-5 9.8900-5 9.8338-5 9.7780-5
 H, KJ/KG         25919.8  26179.3  26444.9  26717.1  23369.5  23576.8  23787.3  24001.3
 U, KJ/KG         18000.7  18215.6  18436.3  18663.3  15929.9  16094.5  16262.2  16433.3
 G, KJ/KG       -191806.4-192947.0-194089.0-195232.3-178604.6-179727.3-180851.1-181976.0
 S, KJ/(KG)(K)   113.9928 114.1283 114.2663 114.4069 112.2079 112.3227 112.4387 112.5559

 M, (1/n)           2.005    2.005    2.004    2.003    2.012    2.011    2.011    2.011
 (dLV/dLP)t      -1.00260 -1.00280 -1.00302 -1.00324 -1.00104 -1.00113 -1.00123 -1.00133
 (dLV/dLT)p        1.0743   1.0796   1.0852   1.0911   1.0314   1.0340   1.0367   1.0396
 Cp, KJ/(KG)(K)   25.6491  26.2513  26.8850  27.5515  20.5708  20.8868  21.2213  21.5752
 GAMMAs            1.2254   1.2215   1.2176   1.2138   1.2702   1.2666   1.2629   1.2592
 SON VEL,M/SEC     3115.1   3118.9   3122.8   3126.6   3074.0   3078.4   3082.8   3087.0

 TRANSPORT PROPERTIES (GASES ONLY)
   CONDUCTIVITY IN UNITS OF MILLIWATTS/(CM)(K)

 VISC,MILLIPOISE  0.32578  0.32716  0.32855  0.32995  0.31106  0.31237  0.31368  0.31499

  WITH EQUILIBRIUM REACTIONS

 Cp, KJ/(KG)(K)   25.6491  26.2513  26.8850  27.5515  20.5708  20.8868  21.2213  21.5752
 CONDUCTIVITY     15.4870  16.0705  16.6859  17.3346  10.6386  10.9406  11.2605  11.5992
 PRANDTL NUMBER    0.5396   0.5344   0.5294   0.5244   0.6015   0.5963   0.5911   0.5859

  WITH FROZEN REACTIONS

 Cp, KJ/(KG)(K)   16.8626  16.8821  16.9017  16.9213  16.6457  16.6655  16.6852  16.7050
 CONDUCTIVITY      7.8260   7.8692   7.9128   7.9568   7.3709   7.4106   7.4506   7.4908
 PRANDTL NUMBER    0.7020   0.7019   0.7018   0.7017   0.7025   0.7025   0.7025   0.7024

 MOLE FRACTIONS

 *H               0.01041  0.01121  0.01206  0.01297  0.00416  0.00452  0.00491  0.00533
 *H2              0.98959  0.98879  0.98794  0.98703  0.99584  0.99548  0.99509  0.99467

  * THERMODYNAMIC PROPERTIES FITTED TO 20000.K

 NOTE. WEIGHT FRACTION OF FUEL IN TOTAL FUELS AND OF OXIDANT IN TOTAL OXIDANTS









               THERMODYNAMIC EQUILIBRIUM PROPERTIES AT ASSIGNED

                           TEMPERATURE AND PRESSURE

 CASE =                

             REACTANT                    WT FRACTION      ENERGY      TEMP
                                          (SEE NOTE)     KJ/KG-MOL      K  
             H2                           1.0000000         0.000      0.000

 O/F=    0.00000  %FUEL=100.000000  R,EQ.RATIO= 0.000000  PHI,EQ.RATIO= 0.000000

 THERMODYNAMIC PROPERTIES

 P, BAR           0.00740  0.00740  0.00740  0.00740  0.00740  0.00740  0.00740  0.00740
 T, K             1840.00  1850.00  1860.00  1870.00  1880.00  1890.00  1900.00  1910.00
 RHO, KG/CU M    9.7227-5 9.6678-5 9.6134-5 9.5593-5 9.5057-5 9.4524-5 9.3995-5 9.3469-5
 H, KJ/KG         24218.9  24440.3  24665.8  24895.6  25130.0  25369.1  25613.3  25862.8
 U, KJ/KG         16607.8  16786.1  16968.2  17154.5  17345.2  17540.4  17740.5  17945.7
 G, KJ/KG       -183102.2-184229.5-185358.1-186487.9-187618.9-188751.2-189884.7-191019.6
 S, KJ/(KG)(K)   112.6745 112.7945 112.9161 113.0393 113.1643 113.2911 113.4200 113.5510

 M, (1/n)           2.010    2.010    2.009    2.009    2.008    2.007    2.007    2.006
 (dLV/dLP)t      -1.00144 -1.00156 -1.00169 -1.00183 -1.00198 -1.00213 -1.00230 -1.00248
 (dLV/dLT)p        1.0427   1.0460   1.0495   1.0533   1.0572   1.0615   1.0659   1.0707
 Cp, KJ/(KG)(K)   21.9495  22.3450  22.7627  23.2038  23.6692  24.1600  24.6773  25.2223
 GAMMAs            1.2554   1.2516   1.2478   1.2439   1.2400   1.2361   1.2323   1.2284
 SON VEL,M/SEC     3091.1   3095.2   3099.2   3103.1   3107.0   3110.9   3114.7   3118.5

 TRANSPORT PROPERTIES (GASES ONLY)
   CONDUCTIVITY IN UNITS OF MILLIWATTS/(CM)(K)

 VISC,MILLIPOISE  0.31630  0.31763  0.31896  0.32029  0.32163  0.32298  0.32433  0.32570

  WITH EQUILIBRIUM REACTIONS

 Cp, KJ/(KG)(K)   21.9495  22.3450  22.7627  23.2038  23.6692  24.1600  24.6773  25.2223
 CONDUCTIVITY     11.9577  12.3372  12.7385  13.1629  13.6115  14.0854  14.5858  15.1141
 PRANDTL NUMBER    0.5806   0.5753   0.5699   0.5646   0.5593   0.5540   0.5487   0.5435

  WITH FROZEN REACTIONS

 Cp, KJ/(KG)(K)   16.7246  16.7443  16.7639  16.7835  16.8030  16.8226  16.8421  16.8616
 CONDUCTIVITY      7.5313   7.5720   7.6130   7.6543   7.6958   7.7377   7.7799   7.8225
 PRANDTL NUMBER    0.7024   0.7024   0.7023   0.7023   0.7022   0.7022   0.7021   0.7020

 MOLE FRACTIONS

 *H               0.00577  0.00625  0.00677  0.00731  0.00790  0.00853  0.00920  0.00991
 *H2              0.99423  0.99375  0.99323  0.99269  0.99210  0.99147  0.99080  0.99009

  * THERMODYNAMIC PROPERTIES FITTED TO 20000.K

 NOTE. WEIGHT FRACTION OF FUEL IN TOTAL FUELS AND OF OXIDANT IN TOTAL OXIDANTS









               THERMODYNAMIC EQUILIBRIUM PROPERTIES AT ASSIGNED

                           TEMPERATURE AND PRESSURE

 CASE =                

             REACTANT                    WT FRACTION      ENERGY      TEMP
                                          (SEE NOTE)     KJ/KG-MOL      K  
             H2                           1.0000000         0.000      0.000

 O/F=    0.00000  %FUEL=100.000000  R,EQ.RATIO= 0.000000  PHI,EQ.RATIO= 0.000000

 THERMODYNAMIC PROPERTIES

 P, BAR           0.00740  0.00740  0.00740  0.00825  0.00825  0.00825  0.00825  0.00825
 T, K             1920.00  1930.00  1940.00  1800.00  1810.00  1820.00  1830.00  1840.00
 RHO, KG/CU M    9.2947-5 9.2428-5 9.1911-5 1.1091-4 1.1027-4 1.0965-4 1.0903-4 1.0841-4
 H, KJ/KG         26117.8  26378.8  26645.9  23344.8  23549.9  23758.1  23969.5  24184.5
 U, KJ/KG         18156.3  18372.5  18594.7  15906.0  16068.5  16234.0  16402.6  16574.6
 G, KJ/KG       -192155.7-193293.3-194432.1-177795.8-178913.7-180032.9-181153.2-182274.7
 S, KJ/(KG)(K)   113.6841 113.8197 113.9578 111.7447 111.8583 111.9731 112.0889 112.2061

 M, (1/n)           2.005    2.004    2.003    2.012    2.012    2.011    2.011    2.010
 (dLV/dLP)t      -1.00267 -1.00287 -1.00309 -1.00098 -1.00107 -1.00116 -1.00126 -1.00137
 (dLV/dLT)p        1.0757   1.0811   1.0867   1.0298   1.0322   1.0348   1.0375   1.0404
 Cp, KJ/(KG)(K)   25.7961  26.4000  27.0352  20.3627  20.6630  20.9808  21.3170  21.6724
 GAMMAs            1.2245   1.2207   1.2168   1.2726   1.2691   1.2655   1.2619   1.2582
 SON VEL,M/SEC     3122.3   3126.2   3130.0   3076.8   3081.3   3085.8   3090.1   3094.3

 TRANSPORT PROPERTIES (GASES ONLY)
   CONDUCTIVITY IN UNITS OF MILLIWATTS/(CM)(K)

 VISC,MILLIPOISE  0.32707  0.32845  0.32984  0.31103  0.31233  0.31363  0.31494  0.31625

  WITH EQUILIBRIUM REACTIONS

 Cp, KJ/(KG)(K)   25.7961  26.4000  27.0352  20.3627  20.6630  20.9808  21.3170  21.6724
 CONDUCTIVITY     15.6714  16.2591  16.8786  10.4646  10.7526  11.0576  11.3804  11.7221
 PRANDTL NUMBER    0.5384   0.5333   0.5283   0.6052   0.6002   0.5951   0.5899   0.5847

  WITH FROZEN REACTIONS

 Cp, KJ/(KG)(K)   16.8811  16.9006  16.9201  16.6452  16.6650  16.6847  16.7044  16.7240
 CONDUCTIVITY      7.8655   7.9088   7.9525   7.3694   7.4090   7.4489   7.4890   7.5292
 PRANDTL NUMBER    0.7020   0.7019   0.7018   0.7025   0.7025   0.7025   0.7025   0.7025

 MOLE FRACTIONS

 *H               0.01067  0.01148  0.01234  0.00394  0.00428  0.00465  0.00505  0.00547
 *H2              0.98933  0.98852  0.98766  0.99606  0.99572  0.99535  0.99495  0.99453

  * THERMODYNAMIC PROPERTIES FITTED TO 20000.K

 NOTE. WEIGHT FRACTION OF FUEL IN TOTAL FUELS AND OF OXIDANT IN TOTAL OXIDANTS









               THERMODYNAMIC EQUILIBRIUM PROPERTIES AT ASSIGNED

                           TEMPERATURE AND PRESSURE

 CASE =                

             REACTANT                    WT FRACTION      ENERGY      TEMP
                                          (SEE NOTE)     KJ/KG-MOL      K  
             H2                           1.0000000         0.000      0.000

 O/F=    0.00000  %FUEL=100.000000  R,EQ.RATIO= 0.000000  PHI,EQ.RATIO= 0.000000

 THERMODYNAMIC PROPERTIES

 P, BAR           0.00825  0.00825  0.00825  0.00825  0.00825  0.00825  0.00825  0.00825
 T, K             1850.00  1860.00  1870.00  1880.00  1890.00  1900.00  1910.00  1920.00
 RHO, KG/CU M    1.0780-4 1.0720-4 1.0659-4 1.0600-4 1.0541-4 1.0482-4 1.0423-4 1.0365-4
 H, KJ/KG         24403.1  24625.5  24852.0  25082.8  25318.2  25558.3  25803.5  26054.0
 U, KJ/KG         16750.1  16929.3  17112.4  17299.6  17491.3  17687.5  17888.6  18094.7
 G, KJ/KG       -183397.3-184521.2-185646.2-186772.5-187900.0-189028.8-190158.8-191290.2
 S, KJ/(KG)(K)   112.3245 112.4444 112.5659 112.6890 112.8139 112.9406 113.0693 113.2001

 M, (1/n)           2.010    2.009    2.009    2.008    2.008    2.007    2.006    2.006
 (dLV/dLP)t      -1.00148 -1.00160 -1.00173 -1.00187 -1.00202 -1.00218 -1.00235 -1.00253
 (dLV/dLT)p        1.0436   1.0469   1.0504   1.0542   1.0582   1.0625   1.0670   1.0717
 Cp, KJ/(KG)(K)   22.0480  22.4446  22.8633  23.3051  23.7709  24.2618  24.7789  25.3234
 GAMMAs            1.2545   1.2507   1.2469   1.2431   1.2393   1.2354   1.2316   1.2278
 SON VEL,M/SEC     3098.5   3102.5   3106.5   3110.5   3114.4   3118.3   3122.2   3126.0

 TRANSPORT PROPERTIES (GASES ONLY)
   CONDUCTIVITY IN UNITS OF MILLIWATTS/(CM)(K)

 VISC,MILLIPOISE  0.31757  0.31890  0.32022  0.32156  0.32290  0.32425  0.32561  0.32697

  WITH EQUILIBRIUM REACTIONS

 Cp, KJ/(KG)(K)   22.0480  22.4446  22.8633  23.3051  23.7709  24.2618  24.7789  25.3234
 CONDUCTIVITY     12.0835  12.4658  12.8698  13.2968  13.7478  14.2240  14.7265  15.2566
 PRANDTL NUMBER    0.5795   0.5742   0.5689   0.5636   0.5583   0.5531   0.5479   0.5427

  WITH FROZEN REACTIONS

 Cp, KJ/(KG)(K)   16.7436  16.7632  16.7827  16.8022  16.8217  16.8412  16.8606  16.8800
 CONDUCTIVITY      7.5698   7.6106   7.6517   7.6930   7.7347   7.7766   7.8189   7.8616
 PRANDTL NUMBER    0.7024   0.7024   0.7024   0.7023   0.7023   0.7022   0.7021   0.7021

 MOLE FRACTIONS

 *H               0.00592  0.00641  0.00693  0.00748  0.00808  0.00871  0.00939  0.01011
 *H2              0.99408  0.99359  0.99307  0.99252  0.99192  0.99129  0.99061  0.98989

  * THERMODYNAMIC PROPERTIES FITTED TO 20000.K

 NOTE. WEIGHT FRACTION OF FUEL IN TOTAL FUELS AND OF OXIDANT IN TOTAL OXIDANTS









               THERMODYNAMIC EQUILIBRIUM PROPERTIES AT ASSIGNED

                           TEMPERATURE AND PRESSURE

 CASE =                

             REACTANT                    WT FRACTION      ENERGY      TEMP
                                          (SEE NOTE)     KJ/KG-MOL      K  
             H2                           1.0000000         0.000      0.000

 O/F=    0.00000  %FUEL=100.000000  R,EQ.RATIO= 0.000000  PHI,EQ.RATIO= 0.000000

 THERMODYNAMIC PROPERTIES

 P, BAR           0.00825  0.00825  0.00910  0.00910  0.00910  0.00910  0.00910  0.00910
 T, K             1930.00  1940.00  1800.00  1810.00  1820.00  1830.00  1840.00  1850.00
 RHO, KG/CU M    1.0308-4 1.0250-4 1.2234-4 1.2165-4 1.2096-4 1.2027-4 1.1960-4 1.1892-4
 H, KJ/KG         26310.1  26572.0  23323.6  23526.8  23733.0  23942.4  24155.0  24371.1
 U, KJ/KG         18306.3  18523.4  15885.5  16046.2  16209.8  16376.4  16546.1  16719.2
 G, KJ/KG       -192422.8-193556.8-177066.3-178180.1-179295.1-180411.2-181528.5-182646.9
 S, KJ/(KG)(K)   113.3331 113.4685 111.3277 111.4403 111.5539 111.6686 111.7845 111.9017

 M, (1/n)           2.005    2.004    2.012    2.012    2.011    2.011    2.011    2.010
 (dLV/dLP)t      -1.00272 -1.00292 -1.00094 -1.00102 -1.00111 -1.00120 -1.00130 -1.00141
 (dLV/dLT)p        1.0768   1.0822   1.0283   1.0306   1.0331   1.0357   1.0385   1.0415
 Cp, KJ/(KG)(K)   25.8963  26.4988  20.1844  20.4713  20.7748  21.0958  21.4351  21.7936
 GAMMAs            1.2239   1.2201   1.2748   1.2713   1.2678   1.2643   1.2607   1.2570
 SON VEL,M/SEC     3129.9   3133.8   3079.3   3083.9   3088.4   3092.8   3097.1   3101.4

 TRANSPORT PROPERTIES (GASES ONLY)
   CONDUCTIVITY IN UNITS OF MILLIWATTS/(CM)(K)

 VISC,MILLIPOISE  0.32835  0.32973  0.31100  0.31230  0.31360  0.31490  0.31621  0.31753

  WITH EQUILIBRIUM REACTIONS

 Cp, KJ/(KG)(K)   25.8963  26.4988  20.1844  20.4713  20.7748  21.0958  21.4351  21.7936
 CONDUCTIVITY     15.8155  16.4046  10.3156  10.5916  10.8838  11.1931  11.5203  11.8663
 PRANDTL NUMBER    0.5376   0.5326   0.6085   0.6036   0.5986   0.5935   0.5884   0.5832

  WITH FROZEN REACTIONS

 Cp, KJ/(KG)(K)   16.8995  16.9189  16.6449  16.6646  16.6843  16.7039  16.7235  16.7431
 CONDUCTIVITY      7.9046   7.9481   7.3682   7.4077   7.4474   7.4873   7.5275   7.5679
 PRANDTL NUMBER    0.7020   0.7019   0.7026   0.7026   0.7025   0.7025   0.7025   0.7025

 MOLE FRACTIONS

 *H               0.01088  0.01169  0.00375  0.00408  0.00443  0.00480  0.00521  0.00564
 *H2              0.98912  0.98831  0.99625  0.99592  0.99557  0.99520  0.99479  0.99436

  * THERMODYNAMIC PROPERTIES FITTED TO 20000.K

 NOTE. WEIGHT FRACTION OF FUEL IN TOTAL FUELS AND OF OXIDANT IN TOTAL OXIDANTS









               THERMODYNAMIC EQUILIBRIUM PROPERTIES AT ASSIGNED

                           TEMPERATURE AND PRESSURE

 CASE =                

             REACTANT                    WT FRACTION      ENERGY      TEMP
                                          (SEE NOTE)     KJ/KG-MOL      K  
             H2                           1.0000000         0.000      0.000

 O/F=    0.00000  %FUEL=100.000000  R,EQ.RATIO= 0.000000  PHI,EQ.RATIO= 0.000000

 THERMODYNAMIC PROPERTIES

 P, BAR           0.00910  0.00910  0.00910  0.00910  0.00910  0.00910  0.00910  0.00910
 T, K             1860.00  1870.00  1880.00  1890.00  1900.00  1910.00  1920.00  1930.00
 RHO, KG/CU M    1.1826-4 1.1760-4 1.1694-4 1.1629-4 1.1564-4 1.1500-4 1.1436-4 1.1373-4
 H, KJ/KG         24591.0  24814.7  25042.5  25274.6  25511.3  25752.8  25999.4  26251.3
 U, KJ/KG         16895.9  17076.3  17260.7  17449.2  17642.1  17839.6  18042.0  18249.5
 G, KJ/KG       -183766.5-184887.3-186009.3-187132.6-188257.0-189382.8-190509.8-191638.1
 S, KJ/(KG)(K)   112.0202 112.1401 112.2616 112.3847 112.5097 112.6364 112.7652 112.8960

 M, (1/n)           2.010    2.009    2.009    2.008    2.008    2.007    2.006    2.005
 (dLV/dLP)t      -1.00153 -1.00165 -1.00178 -1.00192 -1.00207 -1.00224 -1.00241 -1.00259
 (dLV/dLT)p        1.0447   1.0480   1.0516   1.0554   1.0595   1.0638   1.0683   1.0731
 Cp, KJ/(KG)(K)   22.1722  22.5717  22.9932  23.4377  23.9060  24.3992  24.9185  25.4648
 GAMMAs            1.2533   1.2496   1.2458   1.2420   1.2382   1.2344   1.2306   1.2269
 SON VEL,M/SEC     3105.5   3109.6   3113.6   3117.6   3121.5   3125.4   3129.3   3133.2

 TRANSPORT PROPERTIES (GASES ONLY)
   CONDUCTIVITY IN UNITS OF MILLIWATTS/(CM)(K)

 VISC,MILLIPOISE  0.31884  0.32017  0.32150  0.32284  0.32418  0.32553  0.32689  0.32826

  WITH EQUILIBRIUM REACTIONS

 Cp, KJ/(KG)(K)   22.1722  22.5717  22.9932  23.4377  23.9060  24.3992  24.9185  25.4648
 CONDUCTIVITY     12.2321  12.6187  13.0272  13.4586  13.9139  14.3944  14.9012  15.4354
 PRANDTL NUMBER    0.5779   0.5727   0.5675   0.5622   0.5570   0.5518   0.5466   0.5415

  WITH FROZEN REACTIONS

 Cp, KJ/(KG)(K)   16.7626  16.7821  16.8015  16.8210  16.8404  16.8598  16.8791  16.8985
 CONDUCTIVITY      7.6085   7.6494   7.6906   7.7320   7.7738   7.8159   7.8583   7.9011
 PRANDTL NUMBER    0.7025   0.7024   0.7024   0.7023   0.7023   0.7022   0.7021   0.7021

 MOLE FRACTIONS

 *H               0.00610  0.00660  0.00713  0.00769  0.00830  0.00894  0.00963  0.01036
 *H2              0.99390  0.99340  0.99287  0.99231  0.99170  0.99106  0.99037  0.98964

  * THERMODYNAMIC PROPERTIES FITTED TO 20000.K

 NOTE. WEIGHT FRACTION OF FUEL IN TOTAL FUELS AND OF OXIDANT IN TOTAL OXIDANTS









               THERMODYNAMIC EQUILIBRIUM PROPERTIES AT ASSIGNED

                           TEMPERATURE AND PRESSURE

 CASE =                

             REACTANT                    WT FRACTION      ENERGY      TEMP
                                          (SEE NOTE)     KJ/KG-MOL      K  
             H2                           1.0000000         0.000      0.000

 O/F=    0.00000  %FUEL=100.000000  R,EQ.RATIO= 0.000000  PHI,EQ.RATIO= 0.000000

 THERMODYNAMIC PROPERTIES

 P, BAR           0.00910  0.01000  0.01000  0.01000  0.01000  0.01000  0.01000  0.01000
 T, K             1940.00  1800.00  1810.00  1820.00  1830.00  1840.00  1850.00  1860.00
 RHO, KG/CU M    1.1309-4 1.3446-4 1.3369-4 1.3293-4 1.3218-4 1.3144-4 1.3070-4 1.2997-4
 H, KJ/KG         26508.8  23304.1  23505.7  23710.1  23917.5  24128.0  24341.9  24559.3
 U, KJ/KG         18462.4  15866.7  16025.8  16187.6  16352.3  16520.0  16691.0  16865.3
 G, KJ/KG       -192767.7-176364.9-177474.7-178585.6-179697.7-180810.9-181925.3-183040.9
 S, KJ/(KG)(K)   113.0291 110.9272 111.0389 111.1515 111.2651 111.3799 111.4958 111.6130

 M, (1/n)           2.005    2.012    2.012    2.012    2.011    2.011    2.010    2.010
 (dLV/dLP)t      -1.00278 -1.00089 -1.00097 -1.00106 -1.00115 -1.00124 -1.00135 -1.00146
 (dLV/dLT)p        1.0782   1.0270   1.0292   1.0316   1.0341   1.0367   1.0396   1.0426
 Cp, KJ/(KG)(K)   26.0394  20.0210  20.2956  20.5860  20.8931  21.2176  21.5605  21.9225
 GAMMAs            1.2231   1.2768   1.2734   1.2700   1.2665   1.2630   1.2594   1.2557
 SON VEL,M/SEC     3137.1   3081.6   3086.3   3090.9   3095.4   3099.8   3104.1   3108.3

 TRANSPORT PROPERTIES (GASES ONLY)
   CONDUCTIVITY IN UNITS OF MILLIWATTS/(CM)(K)

 VISC,MILLIPOISE  0.32963  0.31097  0.31226  0.31356  0.31487  0.31617  0.31748  0.31880

  WITH EQUILIBRIUM REACTIONS

 Cp, KJ/(KG)(K)   26.0394  20.0210  20.2956  20.5860  20.8931  21.2176  21.5605  21.9225
 CONDUCTIVITY     15.9984  10.1789  10.4440  10.7245  11.0213  11.3352  11.6671  12.0179
 PRANDTL NUMBER    0.5365   0.6117   0.6068   0.6019   0.5969   0.5918   0.5867   0.5815

  WITH FROZEN REACTIONS

 Cp, KJ/(KG)(K)   16.9178  16.6445  16.6642  16.6839  16.7035  16.7230  16.7426  16.7621
 CONDUCTIVITY      7.9442   7.3670   7.4064   7.4460   7.4859   7.5259   7.5661   7.6066
 PRANDTL NUMBER    0.7020   0.7026   0.7026   0.7026   0.7026   0.7026   0.7025   0.7025

 MOLE FRACTIONS

 *H               0.01114  0.00358  0.00389  0.00422  0.00458  0.00497  0.00538  0.00582
 *H2              0.98886  0.99642  0.99611  0.99578  0.99542  0.99503  0.99462  0.99418

  * THERMODYNAMIC PROPERTIES FITTED TO 20000.K

 NOTE. WEIGHT FRACTION OF FUEL IN TOTAL FUELS AND OF OXIDANT IN TOTAL OXIDANTS









               THERMODYNAMIC EQUILIBRIUM PROPERTIES AT ASSIGNED

                           TEMPERATURE AND PRESSURE

 CASE =                

             REACTANT                    WT FRACTION      ENERGY      TEMP
                                          (SEE NOTE)     KJ/KG-MOL      K  
             H2                           1.0000000         0.000      0.000

 O/F=    0.00000  %FUEL=100.000000  R,EQ.RATIO= 0.000000  PHI,EQ.RATIO= 0.000000

 THERMODYNAMIC PROPERTIES

 P, BAR           0.01000  0.01000  0.01000  0.01000  0.01000  0.01000  0.01000  0.01000
 T, K             1870.00  1880.00  1890.00  1900.00  1910.00  1920.00  1930.00  1940.00
 RHO, KG/CU M    1.2925-4 1.2853-4 1.2781-4 1.2710-4 1.2640-4 1.2570-4 1.2500-4 1.2431-4
 H, KJ/KG         24780.4  25005.5  25234.6  25468.2  25706.3  25949.3  26197.3  26450.8
 U, KJ/KG         17043.2  17224.9  17410.6  17600.5  17794.8  17993.7  18197.5  18406.5
 G, KJ/KG       -184157.6-185275.5-186394.6-187515.0-188636.5-189759.4-190883.5-192008.9
 S, KJ/(KG)(K)   111.7315 111.8516 111.9731 112.0964 112.2214 112.3483 112.4771 112.6081

 M, (1/n)           2.010    2.009    2.008    2.008    2.007    2.007    2.006    2.005
 (dLV/dLP)t      -1.00157 -1.00170 -1.00184 -1.00198 -1.00213 -1.00230 -1.00247 -1.00266
 (dLV/dLT)p        1.0458   1.0493   1.0529   1.0568   1.0609   1.0652   1.0698   1.0747
 Cp, KJ/(KG)(K)   22.3045  22.7074  23.1322  23.5798  24.0512  24.5474  25.0694  25.6183
 GAMMAs            1.2521   1.2484   1.2446   1.2409   1.2371   1.2334   1.2296   1.2259
 SON VEL,M/SEC     3112.5   3116.6   3120.6   3124.6   3128.5   3132.5   3136.4   3140.3

 TRANSPORT PROPERTIES (GASES ONLY)
   CONDUCTIVITY IN UNITS OF MILLIWATTS/(CM)(K)

 VISC,MILLIPOISE  0.32012  0.32145  0.32278  0.32412  0.32546  0.32681  0.32818  0.32954

  WITH EQUILIBRIUM REACTIONS

 Cp, KJ/(KG)(K)   22.3045  22.7074  23.1322  23.5798  24.0512  24.5474  25.0694  25.6183
 CONDUCTIVITY     12.3885  12.7800  13.1934  13.6296  14.0899  14.5753  15.0869  15.6259
 PRANDTL NUMBER    0.5763   0.5711   0.5659   0.5607   0.5556   0.5504   0.5453   0.5403

  WITH FROZEN REACTIONS

 Cp, KJ/(KG)(K)   16.7815  16.8009  16.8203  16.8397  16.8590  16.8783  16.8976  16.9169
 CONDUCTIVITY      7.6474   7.6884   7.7296   7.7712   7.8131   7.8553   7.8978   7.9407
 PRANDTL NUMBER    0.7025   0.7024   0.7024   0.7023   0.7023   0.7022   0.7021   0.7021

 MOLE FRACTIONS

 *H               0.00630  0.00680  0.00734  0.00792  0.00853  0.00919  0.00988  0.01063
 *H2              0.99370  0.99320  0.99266  0.99208  0.99147  0.99081  0.99012  0.98937

  * THERMODYNAMIC PROPERTIES FITTED TO 20000.K

 NOTE. WEIGHT FRACTION OF FUEL IN TOTAL FUELS AND OF OXIDANT IN TOTAL OXIDANTS









               THERMODYNAMIC EQUILIBRIUM PROPERTIES AT ASSIGNED

                           TEMPERATURE AND PRESSURE

 CASE =                

             REACTANT                    WT FRACTION      ENERGY      TEMP
                                          (SEE NOTE)     KJ/KG-MOL      K  
             H2                           1.0000000         0.000      0.000

 O/F=    0.00000  %FUEL=100.000000  R,EQ.RATIO= 0.000000  PHI,EQ.RATIO= 0.000000

 THERMODYNAMIC PROPERTIES

 P, BAR           0.01100  0.01100  0.01100  0.01100  0.01100  0.01100  0.01100  0.01100
 T, K             1800.00  1810.00  1820.00  1830.00  1840.00  1850.00  1860.00  1870.00
 RHO, KG/CU M    1.4791-4 1.4707-4 1.4624-4 1.4542-4 1.4460-4 1.4379-4 1.4299-4 1.4219-4
 H, KJ/KG         23285.4  23485.4  23688.0  23893.5  24102.0  24313.7  24528.8  24747.4
 U, KJ/KG         15848.6  16006.1  16166.2  16329.1  16494.9  16663.7  16835.8  17011.4
 G, KJ/KG       -175656.0-176761.8-177868.7-178976.7-180085.9-181196.1-182307.6-183420.2
 S, KJ/(KG)(K)   110.5230 110.6338 110.7454 110.8580 110.9717 111.0864 111.2023 111.3196

 M, (1/n)           2.012    2.012    2.012    2.011    2.011    2.011    2.010    2.010
 (dLV/dLP)t      -1.00085 -1.00093 -1.00101 -1.00109 -1.00118 -1.00128 -1.00139 -1.00150
 (dLV/dLT)p        1.0258   1.0279   1.0301   1.0325   1.0350   1.0377   1.0406   1.0437
 Cp, KJ/(KG)(K)   19.8636  20.1262  20.4040  20.6977  21.0080  21.3358  21.6818  22.0469
 GAMMAs            1.2788   1.2755   1.2721   1.2687   1.2653   1.2617   1.2582   1.2546
 SON VEL,M/SEC     3083.8   3088.6   3093.3   3097.9   3102.4   3106.8   3111.1   3115.3

 TRANSPORT PROPERTIES (GASES ONLY)
   CONDUCTIVITY IN UNITS OF MILLIWATTS/(CM)(K)

 VISC,MILLIPOISE  0.31094  0.31224  0.31353  0.31483  0.31613  0.31744  0.31875  0.32007

  WITH EQUILIBRIUM REACTIONS

 Cp, KJ/(KG)(K)   19.8636  20.1262  20.4040  20.6977  21.0080  21.3358  21.6818  22.0469
 CONDUCTIVITY     10.0472  10.3017  10.5710  10.8557  11.1568  11.4750  11.8113  12.1666
 PRANDTL NUMBER    0.6147   0.6100   0.6052   0.6003   0.5953   0.5902   0.5851   0.5800

  WITH FROZEN REACTIONS

 Cp, KJ/(KG)(K)   16.6442  16.6639  16.6835  16.7031  16.7226  16.7421  16.7615  16.7809
 CONDUCTIVITY      7.3659   7.4052   7.4447   7.4844   7.5243   7.5645   7.6048   7.6454
 PRANDTL NUMBER    0.7026   0.7026   0.7026   0.7026   0.7026   0.7026   0.7026   0.7025

 MOLE FRACTIONS

 *H               0.00341  0.00371  0.00403  0.00437  0.00474  0.00513  0.00555  0.00600
 *H2              0.99659  0.99629  0.99597  0.99563  0.99526  0.99487  0.99445  0.99400

  * THERMODYNAMIC PROPERTIES FITTED TO 20000.K

 NOTE. WEIGHT FRACTION OF FUEL IN TOTAL FUELS AND OF OXIDANT IN TOTAL OXIDANTS









               THERMODYNAMIC EQUILIBRIUM PROPERTIES AT ASSIGNED

                           TEMPERATURE AND PRESSURE

 CASE =                

             REACTANT                    WT FRACTION      ENERGY      TEMP
                                          (SEE NOTE)     KJ/KG-MOL      K  
             H2                           1.0000000         0.000      0.000

 O/F=    0.00000  %FUEL=100.000000  R,EQ.RATIO= 0.000000  PHI,EQ.RATIO= 0.000000

 THERMODYNAMIC PROPERTIES

 P, BAR           0.01100  0.01100  0.01100  0.01100  0.01100  0.01100  0.01100  0.01200
 T, K             1880.00  1890.00  1900.00  1910.00  1920.00  1930.00  1940.00  1800.00
 RHO, KG/CU M    1.4140-4 1.4062-4 1.3984-4 1.3906-4 1.3830-4 1.3753-4 1.3678-4 1.6137-4
 H, KJ/KG         24969.8  25196.1  25426.6  25661.5  25901.0  26145.4  26394.9  23269.1
 U, KJ/KG         17190.5  17373.4  17560.4  17751.5  17947.1  18147.4  18352.6  15832.8
 G, KJ/KG       -184534.0-185649.0-186765.2-187882.6-189001.2-190121.1-191242.3-175009.0
 S, KJ/(KG)(K)   111.4382 111.5582 111.6799 111.8032 111.9282 112.0552 112.1841 110.1545

 M, (1/n)           2.009    2.009    2.008    2.008    2.007    2.006    2.006    2.013
 (dLV/dLP)t      -1.00162 -1.00175 -1.00189 -1.00203 -1.00219 -1.00236 -1.00253 -1.00082
 (dLV/dLT)p        1.0470   1.0504   1.0541   1.0580   1.0622   1.0666   1.0712   1.0247
 Cp, KJ/(KG)(K)   22.4320  22.8378  23.2655  23.7158  24.1897  24.6883  25.2125  19.7262
 GAMMAs            1.2509   1.2472   1.2435   1.2398   1.2361   1.2324   1.2287   1.2805
 SON VEL,M/SEC     3119.5   3123.6   3127.6   3131.6   3135.6   3139.6   3143.5   3085.8

 TRANSPORT PROPERTIES (GASES ONLY)
   CONDUCTIVITY IN UNITS OF MILLIWATTS/(CM)(K)

 VISC,MILLIPOISE  0.32139  0.32272  0.32405  0.32539  0.32674  0.32810  0.32946  0.31092

  WITH EQUILIBRIUM REACTIONS

 Cp, KJ/(KG)(K)   22.4320  22.8378  23.2655  23.7158  24.1897  24.6883  25.2125  19.7262
 CONDUCTIVITY     12.5417  12.9377  13.3555  13.7963  14.2610  14.7508  15.2667   9.9322
 PRANDTL NUMBER    0.5748   0.5697   0.5645   0.5594   0.5542   0.5491   0.5441   0.6175

  WITH FROZEN REACTIONS

 Cp, KJ/(KG)(K)   16.8003  16.8196  16.8390  16.8582  16.8775  16.8967  16.9159  16.6439
 CONDUCTIVITY      7.6862   7.7273   7.7687   7.8104   7.8523   7.8946   7.9373   7.3650
 PRANDTL NUMBER    0.7025   0.7024   0.7024   0.7023   0.7023   0.7022   0.7021   0.7026

 MOLE FRACTIONS

 *H               0.00648  0.00700  0.00755  0.00814  0.00876  0.00943  0.01013  0.00327
 *H2              0.99352  0.99300  0.99245  0.99186  0.99124  0.99057  0.98987  0.99673

  * THERMODYNAMIC PROPERTIES FITTED TO 20000.K

 NOTE. WEIGHT FRACTION OF FUEL IN TOTAL FUELS AND OF OXIDANT IN TOTAL OXIDANTS









               THERMODYNAMIC EQUILIBRIUM PROPERTIES AT ASSIGNED

                           TEMPERATURE AND PRESSURE

 CASE =                

             REACTANT                    WT FRACTION      ENERGY      TEMP
                                          (SEE NOTE)     KJ/KG-MOL      K  
             H2                           1.0000000         0.000      0.000

 O/F=    0.00000  %FUEL=100.000000  R,EQ.RATIO= 0.000000  PHI,EQ.RATIO= 0.000000

 THERMODYNAMIC PROPERTIES

 P, BAR           0.01200  0.01200  0.01200  0.01200  0.01200  0.01200  0.01200  0.01200
 T, K             1810.00  1820.00  1830.00  1840.00  1850.00  1860.00  1870.00  1880.00
 RHO, KG/CU M    1.6046-4 1.5955-4 1.5865-4 1.5776-4 1.5688-4 1.5601-4 1.5514-4 1.5428-4
 H, KJ/KG         23467.6  23668.7  23872.6  24079.3  24289.1  24502.2  24718.6  24938.7
 U, KJ/KG         15989.0  16147.6  16308.9  16473.0  16640.0  16810.1  16983.6  17160.4
 G, KJ/KG       -176111.0-177214.2-178318.6-179424.0-180530.6-181638.3-182747.1-183857.1
 S, KJ/(KG)(K)   110.2644 110.3752 110.4869 110.5996 110.7133 110.8282 110.9442 111.0616

 M, (1/n)           2.012    2.012    2.012    2.011    2.011    2.011    2.010    2.010
 (dLV/dLP)t      -1.00089 -1.00096 -1.00105 -1.00113 -1.00123 -1.00133 -1.00144 -1.00155
 (dLV/dLT)p        1.0267   1.0288   1.0311   1.0336   1.0361   1.0389   1.0419   1.0450
 Cp, KJ/(KG)(K)   19.9785  20.2453  20.5273  20.8252  21.1398  21.4719  21.8222  22.1917
 GAMMAs            1.2773   1.2740   1.2707   1.2673   1.2638   1.2603   1.2568   1.2532
 SON VEL,M/SEC     3090.7   3095.5   3100.2   3104.7   3109.2   3113.6   3117.9   3122.1

 TRANSPORT PROPERTIES (GASES ONLY)
   CONDUCTIVITY IN UNITS OF MILLIWATTS/(CM)(K)

 VISC,MILLIPOISE  0.31221  0.31350  0.31480  0.31610  0.31740  0.31871  0.32003  0.32135

  WITH EQUILIBRIUM REACTIONS

 Cp, KJ/(KG)(K)   19.9785  20.2453  20.5273  20.8252  21.1398  21.4719  21.8222  22.1917
 CONDUCTIVITY     10.1776  10.4370  10.7113  11.0012  11.3075  11.6311  11.9729  12.3338
 PRANDTL NUMBER    0.6129   0.6081   0.6033   0.5984   0.5934   0.5884   0.5833   0.5782

  WITH FROZEN REACTIONS

 Cp, KJ/(KG)(K)   16.6636  16.6832  16.7027  16.7222  16.7417  16.7611  16.7804  16.7998
 CONDUCTIVITY      7.4042   7.4436   7.4832   7.5230   7.5630   7.6032   7.6436   7.6843
 PRANDTL NUMBER    0.7026   0.7026   0.7026   0.7026   0.7026   0.7026   0.7026   0.7025

 MOLE FRACTIONS

 *H               0.00355  0.00386  0.00418  0.00454  0.00491  0.00532  0.00575  0.00621
 *H2              0.99645  0.99614  0.99582  0.99546  0.99509  0.99468  0.99425  0.99379

  * THERMODYNAMIC PROPERTIES FITTED TO 20000.K

 NOTE. WEIGHT FRACTION OF FUEL IN TOTAL FUELS AND OF OXIDANT IN TOTAL OXIDANTS









               THERMODYNAMIC EQUILIBRIUM PROPERTIES AT ASSIGNED

                           TEMPERATURE AND PRESSURE

 CASE =                

             REACTANT                    WT FRACTION      ENERGY      TEMP
                                          (SEE NOTE)     KJ/KG-MOL      K  
             H2                           1.0000000         0.000      0.000

 O/F=    0.00000  %FUEL=100.000000  R,EQ.RATIO= 0.000000  PHI,EQ.RATIO= 0.000000

 THERMODYNAMIC PROPERTIES

 P, BAR           0.01200  0.01200  0.01200  0.01200  0.01200  0.01200  0.01320  0.01320
 T, K             1890.00  1900.00  1910.00  1920.00  1930.00  1940.00  1800.00  1810.00
 RHO, KG/CU M    1.5342-4 1.5257-4 1.5173-4 1.5090-4 1.5007-4 1.4924-4 1.7752-4 1.7652-4
 H, KJ/KG         25162.5  25390.4  25622.4  25858.9  26100.0  26346.1  23252.0  23449.0
 U, KJ/KG         17341.0  17525.4  17713.8  17906.5  18103.7  18305.5  15816.3  15971.0
 G, KJ/KG       -184968.4-186080.8-187194.4-188309.2-189425.3-190542.6-174300.3-175398.3
 S, KJ/(KG)(K)   111.1804 111.3006 111.4224 111.5459 111.6712 111.7983 109.7513 109.8604

 M, (1/n)           2.009    2.009    2.008    2.007    2.007    2.006    2.013    2.012
 (dLV/dLP)t      -1.00168 -1.00181 -1.00195 -1.00210 -1.00226 -1.00243 -1.00078 -1.00085
 (dLV/dLT)p        1.0483   1.0518   1.0556   1.0595   1.0637   1.0682   1.0235   1.0255
 Cp, KJ/(KG)(K)   22.5811  22.9913  23.4232  23.8777  24.3558  24.8585  19.5825  19.8239
 GAMMAs            1.2496   1.2459   1.2423   1.2386   1.2349   1.2312   1.2824   1.2793
 SON VEL,M/SEC     3126.3   3130.4   3134.4   3138.4   3142.4   3146.4   3088.0   3093.0

 TRANSPORT PROPERTIES (GASES ONLY)
   CONDUCTIVITY IN UNITS OF MILLIWATTS/(CM)(K)

 VISC,MILLIPOISE  0.32267  0.32400  0.32534  0.32668  0.32803  0.32938  0.31089  0.31218

  WITH EQUILIBRIUM REACTIONS

 Cp, KJ/(KG)(K)   22.5811  22.9913  23.4232  23.8777  24.3558  24.8585  19.5825  19.8239
 CONDUCTIVITY     12.7146  13.1164  13.5401  13.9868  14.4574  14.9532   9.8119  10.0476
 PRANDTL NUMBER    0.5731   0.5679   0.5628   0.5577   0.5526   0.5476   0.6205   0.6159

  WITH FROZEN REACTIONS

 Cp, KJ/(KG)(K)   16.8191  16.8383  16.8576  16.8768  16.8960  16.9151  16.6436  16.6632
 CONDUCTIVITY      7.7253   7.7665   7.8080   7.8498   7.8919   7.9343   7.3640   7.4031
 PRANDTL NUMBER    0.7025   0.7025   0.7024   0.7023   0.7023   0.7022   0.7027   0.7027

 MOLE FRACTIONS

 *H               0.00670  0.00723  0.00779  0.00839  0.00903  0.00970  0.00312  0.00339
 *H2              0.99330  0.99277  0.99221  0.99161  0.99097  0.99030  0.99688  0.99661

  * THERMODYNAMIC PROPERTIES FITTED TO 20000.K

 NOTE. WEIGHT FRACTION OF FUEL IN TOTAL FUELS AND OF OXIDANT IN TOTAL OXIDANTS









               THERMODYNAMIC EQUILIBRIUM PROPERTIES AT ASSIGNED

                           TEMPERATURE AND PRESSURE

 CASE =                

             REACTANT                    WT FRACTION      ENERGY      TEMP
                                          (SEE NOTE)     KJ/KG-MOL      K  
             H2                           1.0000000         0.000      0.000

 O/F=    0.00000  %FUEL=100.000000  R,EQ.RATIO= 0.000000  PHI,EQ.RATIO= 0.000000

 THERMODYNAMIC PROPERTIES

 P, BAR           0.01320  0.01320  0.01320  0.01320  0.01320  0.01320  0.01320  0.01320
 T, K             1820.00  1830.00  1840.00  1850.00  1860.00  1870.00  1880.00  1890.00
 RHO, KG/CU M    1.7552-4 1.7454-4 1.7356-4 1.7259-4 1.7163-4 1.7067-4 1.6973-4 1.6879-4
 H, KJ/KG         23648.5  23850.7  24055.6  24263.4  24474.3  24688.5  24906.1  25127.4
 U, KJ/KG         16128.1  16287.7  16450.0  16615.1  16783.2  16954.5  17129.0  17307.0
 G, KJ/KG       -176497.4-177597.7-178699.1-179801.6-180905.2-182009.9-183115.9-184222.9
 S, KJ/(KG)(K)   109.9703 110.0811 110.1927 110.3054 110.4191 110.5339 110.6500 110.7674

 M, (1/n)           2.012    2.012    2.012    2.011    2.011    2.010    2.010    2.009
 (dLV/dLP)t      -1.00092 -1.00100 -1.00108 -1.00117 -1.00127 -1.00137 -1.00148 -1.00160
 (dLV/dLT)p        1.0275   1.0297   1.0320   1.0345   1.0371   1.0399   1.0429   1.0461
 Cp, KJ/(KG)(K)   20.0792  20.3489  20.6338  20.9347  21.2522  21.5871  21.9402  22.3123
 GAMMAs            1.2761   1.2728   1.2695   1.2661   1.2626   1.2592   1.2556   1.2521
 SON VEL,M/SEC     3097.8   3102.6   3107.2   3111.8   3116.3   3120.6   3124.9   3129.2

 TRANSPORT PROPERTIES (GASES ONLY)
   CONDUCTIVITY IN UNITS OF MILLIWATTS/(CM)(K)

 VISC,MILLIPOISE  0.31347  0.31477  0.31607  0.31737  0.31867  0.31998  0.32130  0.32262

  WITH EQUILIBRIUM REACTIONS

 Cp, KJ/(KG)(K)   20.0792  20.3489  20.6338  20.9347  21.2522  21.5871  21.9402  22.3123
 CONDUCTIVITY     10.2967  10.5600  10.8382  11.1321  11.4425  11.7702  12.1161  12.4810
 PRANDTL NUMBER    0.6113   0.6065   0.6017   0.5968   0.5919   0.5869   0.5818   0.5767

  WITH FROZEN REACTIONS

 Cp, KJ/(KG)(K)   16.6828  16.7023  16.7218  16.7412  16.7606  16.7799  16.7992  16.8185
 CONDUCTIVITY      7.4424   7.4819   7.5216   7.5614   7.6015   7.6418   7.6824   7.7231
 PRANDTL NUMBER    0.7027   0.7027   0.7027   0.7027   0.7026   0.7026   0.7026   0.7026

 MOLE FRACTIONS

 *H               0.00368  0.00399  0.00433  0.00469  0.00507  0.00548  0.00592  0.00639
 *H2              0.99632  0.99601  0.99567  0.99531  0.99493  0.99452  0.99408  0.99361

  * THERMODYNAMIC PROPERTIES FITTED TO 20000.K

 NOTE. WEIGHT FRACTION OF FUEL IN TOTAL FUELS AND OF OXIDANT IN TOTAL OXIDANTS









               THERMODYNAMIC EQUILIBRIUM PROPERTIES AT ASSIGNED

                           TEMPERATURE AND PRESSURE

 CASE =                

             REACTANT                    WT FRACTION      ENERGY      TEMP
                                          (SEE NOTE)     KJ/KG-MOL      K  
             H2                           1.0000000         0.000      0.000

 O/F=    0.00000  %FUEL=100.000000  R,EQ.RATIO= 0.000000  PHI,EQ.RATIO= 0.000000

 THERMODYNAMIC PROPERTIES

 P, BAR           0.01320  0.01320  0.01320  0.01320  0.01320  0.01480  0.01480  0.01480
 T, K             1900.00  1910.00  1920.00  1930.00  1940.00  1800.00  1810.00  1820.00
 RHO, KG/CU M    1.6786-4 1.6694-4 1.6602-4 1.6511-4 1.6420-4 1.9906-4 1.9793-4 1.9682-4
 H, KJ/KG         25352.4  25581.5  25814.8  26052.6  26295.1  23232.5  23427.9  23625.5
 U, KJ/KG         17488.8  17674.3  17864.0  18057.9  18256.3  15797.5  15950.5  16105.9
 G, KJ/KG       -185331.2-186440.7-187551.3-188663.2-189776.4-173449.6-174542.8-175637.1
 S, KJ/(KG)(K)   110.8861 111.0064 111.1282 111.2517 111.3770 109.2678 109.3760 109.4849

 M, (1/n)           2.009    2.008    2.008    2.007    2.007    2.013    2.013    2.012
 (dLV/dLP)t      -1.00172 -1.00186 -1.00200 -1.00215 -1.00231 -1.00074 -1.00080 -1.00087
 (dLV/dLT)p        1.0494   1.0530   1.0568   1.0608   1.0650   1.0222   1.0240   1.0260
 Cp, KJ/(KG)(K)   22.7043  23.1169  23.5512  24.0079  24.4880  19.4187  19.6478  19.8899
 GAMMAs            1.2485   1.2449   1.2413   1.2376   1.2340   1.2846   1.2815   1.2784
 SON VEL,M/SEC     3133.3   3137.4   3141.5   3145.5   3149.6   3090.5   3095.6   3100.5

 TRANSPORT PROPERTIES (GASES ONLY)
   CONDUCTIVITY IN UNITS OF MILLIWATTS/(CM)(K)

 VISC,MILLIPOISE  0.32394  0.32527  0.32661  0.32796  0.32931  0.31087  0.31215  0.31344

  WITH EQUILIBRIUM REACTIONS

 Cp, KJ/(KG)(K)   22.7043  23.1169  23.5512  24.0079  24.4880  19.4187  19.6478  19.8899
 CONDUCTIVITY     12.8660  13.2718  13.6996  14.1503  14.6250   9.6749   9.8996  10.1369
 PRANDTL NUMBER    0.5717   0.5666   0.5615   0.5564   0.5514   0.6239   0.6195   0.6150

  WITH FROZEN REACTIONS

 Cp, KJ/(KG)(K)   16.8377  16.8569  16.8760  16.8952  16.9143  16.6433  16.6628  16.6824
 CONDUCTIVITY      7.7642   7.8055   7.8471   7.8890   7.9312   7.3628   7.4018   7.4410
 PRANDTL NUMBER    0.7025   0.7025   0.7024   0.7024   0.7023   0.7027   0.7027   0.7027

 MOLE FRACTIONS

 *H               0.00689  0.00743  0.00800  0.00861  0.00926  0.00294  0.00320  0.00347
 *H2              0.99311  0.99257  0.99200  0.99139  0.99074  0.99706  0.99680  0.99653

  * THERMODYNAMIC PROPERTIES FITTED TO 20000.K

 NOTE. WEIGHT FRACTION OF FUEL IN TOTAL FUELS AND OF OXIDANT IN TOTAL OXIDANTS









               THERMODYNAMIC EQUILIBRIUM PROPERTIES AT ASSIGNED

                           TEMPERATURE AND PRESSURE

 CASE =                

             REACTANT                    WT FRACTION      ENERGY      TEMP
                                          (SEE NOTE)     KJ/KG-MOL      K  
             H2                           1.0000000         0.000      0.000

 O/F=    0.00000  %FUEL=100.000000  R,EQ.RATIO= 0.000000  PHI,EQ.RATIO= 0.000000

 THERMODYNAMIC PROPERTIES

 P, BAR           0.01480  0.01480  0.01480  0.01480  0.01480  0.01480  0.01480  0.01480
 T, K             1830.00  1840.00  1850.00  1860.00  1870.00  1880.00  1890.00  1900.00
 RHO, KG/CU M    1.9571-4 1.9462-4 1.9353-4 1.9246-4 1.9139-4 1.9033-4 1.8928-4 1.8824-4
 H, KJ/KG         23825.7  24028.5  24234.1  24442.6  24654.2  24869.0  25087.3  25309.2
 U, KJ/KG         16263.6  16423.9  16586.8  16752.6  16921.3  17093.2  17268.4  17447.0
 G, KJ/KG       -176732.5-177829.0-178926.6-180025.3-181125.2-182226.1-183328.3-184431.6
 S, KJ/(KG)(K)   109.5946 109.7051 109.8166 109.9290 110.0424 110.1570 110.2728 110.3899

 M, (1/n)           2.012    2.012    2.011    2.011    2.011    2.010    2.010    2.009
 (dLV/dLP)t      -1.00094 -1.00102 -1.00111 -1.00120 -1.00129 -1.00140 -1.00151 -1.00163
 (dLV/dLT)p        1.0280   1.0302   1.0326   1.0350   1.0377   1.0405   1.0435   1.0467
 Cp, KJ/(KG)(K)   20.1457  20.4159  20.7010  21.0019  21.3192  21.6537  22.0062  22.3774
 GAMMAs            1.2752   1.2720   1.2687   1.2653   1.2619   1.2585   1.2550   1.2515
 SON VEL,M/SEC     3105.4   3110.2   3114.8   3119.4   3123.8   3128.2   3132.5   3136.8

 TRANSPORT PROPERTIES (GASES ONLY)
   CONDUCTIVITY IN UNITS OF MILLIWATTS/(CM)(K)

 VISC,MILLIPOISE  0.31473  0.31603  0.31732  0.31863  0.31993  0.32124  0.32256  0.32388

  WITH EQUILIBRIUM REACTIONS

 Cp, KJ/(KG)(K)   20.1457  20.4159  20.7010  21.0019  21.3192  21.6537  22.0062  22.3774
 CONDUCTIVITY     10.3877  10.6526  10.9323  11.2275  11.5392  11.8680  12.2149  12.5806
 PRANDTL NUMBER    0.6104   0.6057   0.6009   0.5960   0.5911   0.5861   0.5811   0.5761

  WITH FROZEN REACTIONS

 Cp, KJ/(KG)(K)   16.7019  16.7213  16.7407  16.7600  16.7793  16.7986  16.8178  16.8370
 CONDUCTIVITY      7.4804   7.5199   7.5597   7.5996   7.6398   7.6801   7.7207   7.7616
 PRANDTL NUMBER    0.7027   0.7027   0.7027   0.7027   0.7027   0.7026   0.7026   0.7026

 MOLE FRACTIONS

 *H               0.00377  0.00409  0.00443  0.00479  0.00518  0.00559  0.00604  0.00651
 *H2              0.99623  0.99591  0.99557  0.99521  0.99482  0.99441  0.99396  0.99349

  * THERMODYNAMIC PROPERTIES FITTED TO 20000.K

 NOTE. WEIGHT FRACTION OF FUEL IN TOTAL FUELS AND OF OXIDANT IN TOTAL OXIDANTS









               THERMODYNAMIC EQUILIBRIUM PROPERTIES AT ASSIGNED

                           TEMPERATURE AND PRESSURE

 CASE =                

             REACTANT                    WT FRACTION      ENERGY      TEMP
                                          (SEE NOTE)     KJ/KG-MOL      K  
             H2                           1.0000000         0.000      0.000

 O/F=    0.00000  %FUEL=100.000000  R,EQ.RATIO= 0.000000  PHI,EQ.RATIO= 0.000000

 THERMODYNAMIC PROPERTIES

 P, BAR           0.01480  0.01480  0.01480  0.01480  0.01650  0.01650  0.01650  0.01650
 T, K             1910.00  1920.00  1930.00  1940.00  1800.00  1810.00  1820.00  1830.00
 RHO, KG/CU M    1.8721-4 1.8618-4 1.8517-4 1.8416-4 2.2194-4 2.2069-4 2.1944-4 2.1822-4
 H, KJ/KG         25534.9  25764.6  25998.6  26236.9  23215.0  23408.8  23604.9  23803.3
 U, KJ/KG         17629.4  17815.5  18005.8  18200.3  15780.6  15932.2  16085.9  16241.9
 G, KJ/KG       -185536.1-186641.8-187748.7-188856.8-172641.2-173729.8-174819.5-175910.3
 S, KJ/(KG)(K)   110.5084 110.6283 110.7499 110.8731 108.8090 108.9164 109.0244 109.1331

 M, (1/n)           2.009    2.008    2.008    2.007    2.013    2.013    2.013    2.012
 (dLV/dLP)t      -1.00175 -1.00189 -1.00203 -1.00219 -1.00070 -1.00076 -1.00082 -1.00089
 (dLV/dLT)p        1.0501   1.0536   1.0574   1.0614   1.0211   1.0228   1.0246   1.0265
 Cp, KJ/(KG)(K)   22.7681  23.1792  23.6115  24.0660  19.2716  19.4895  19.7198  19.9631
 GAMMAs            1.2480   1.2444   1.2408   1.2372   1.2866   1.2836   1.2806   1.2775
 SON VEL,M/SEC     3141.0   3145.1   3149.2   3153.3   3092.7   3097.9   3103.0   3108.0

 TRANSPORT PROPERTIES (GASES ONLY)
   CONDUCTIVITY IN UNITS OF MILLIWATTS/(CM)(K)

 VISC,MILLIPOISE  0.32520  0.32654  0.32787  0.32922  0.31084  0.31212  0.31341  0.31470

  WITH EQUILIBRIUM REACTIONS

 Cp, KJ/(KG)(K)   22.7681  23.1792  23.6115  24.0660  19.2716  19.4895  19.7198  19.9631
 CONDUCTIVITY     12.9662  13.3724  13.8003  14.2509   9.5517   9.7665   9.9933  10.2328
 PRANDTL NUMBER    0.5710   0.5660   0.5610   0.5560   0.6272   0.6229   0.6185   0.6139

  WITH FROZEN REACTIONS

 Cp, KJ/(KG)(K)   16.8561  16.8752  16.8943  16.9133  16.6429  16.6625  16.6820  16.7015
 CONDUCTIVITY      7.8027   7.8440   7.8857   7.9276   7.3618   7.4007   7.4398   7.4791
 PRANDTL NUMBER    0.7025   0.7025   0.7024   0.7024   0.7027   0.7027   0.7027   0.7028

 MOLE FRACTIONS

 *H               0.00702  0.00756  0.00813  0.00874  0.00279  0.00303  0.00329  0.00357
 *H2              0.99298  0.99244  0.99187  0.99126  0.99721  0.99697  0.99671  0.99643

  * THERMODYNAMIC PROPERTIES FITTED TO 20000.K

 NOTE. WEIGHT FRACTION OF FUEL IN TOTAL FUELS AND OF OXIDANT IN TOTAL OXIDANTS









               THERMODYNAMIC EQUILIBRIUM PROPERTIES AT ASSIGNED

                           TEMPERATURE AND PRESSURE

 CASE =                

             REACTANT                    WT FRACTION      ENERGY      TEMP
                                          (SEE NOTE)     KJ/KG-MOL      K  
             H2                           1.0000000         0.000      0.000

 O/F=    0.00000  %FUEL=100.000000  R,EQ.RATIO= 0.000000  PHI,EQ.RATIO= 0.000000

 THERMODYNAMIC PROPERTIES

 P, BAR           0.01650  0.01650  0.01650  0.01650  0.01650  0.01650  0.01650  0.01650
 T, K             1840.00  1850.00  1860.00  1870.00  1880.00  1890.00  1900.00  1910.00
 RHO, KG/CU M    2.1700-4 2.1579-4 2.1459-4 2.1340-4 2.1223-4 2.1106-4 2.0990-4 2.0875-4
 H, KJ/KG         24004.2  24207.7  24414.0  24623.3  24835.7  25051.3  25270.4  25493.0
 U, KJ/KG         16400.4  16561.4  16725.0  16891.5  17061.0  17233.6  17409.5  17588.9
 G, KJ/KG       -177002.1-178095.1-179189.2-180284.4-181380.7-182478.2-183576.8-184676.6
 S, KJ/(KG)(K)   109.2426 109.3529 109.4641 109.5763 109.6896 109.8040 109.9196 110.0364

 M, (1/n)           2.012    2.012    2.011    2.011    2.011    2.010    2.010    2.009
 (dLV/dLP)t      -1.00097 -1.00105 -1.00113 -1.00123 -1.00132 -1.00143 -1.00154 -1.00166
 (dLV/dLT)p        1.0286   1.0308   1.0332   1.0357   1.0384   1.0412   1.0442   1.0474
 Cp, KJ/(KG)(K)   20.2199  20.4910  20.7770  21.0785  21.3963  21.7310  22.0836  22.4546
 GAMMAs            1.2743   1.2711   1.2678   1.2645   1.2612   1.2577   1.2543   1.2508
 SON VEL,M/SEC     3112.8   3117.6   3122.3   3126.8   3131.3   3135.7   3140.0   3144.3

 TRANSPORT PROPERTIES (GASES ONLY)
   CONDUCTIVITY IN UNITS OF MILLIWATTS/(CM)(K)

 VISC,MILLIPOISE  0.31599  0.31728  0.31858  0.31989  0.32119  0.32250  0.32382  0.32514

  WITH EQUILIBRIUM REACTIONS

 Cp, KJ/(KG)(K)   20.2199  20.4910  20.7770  21.0785  21.3963  21.7310  22.0836  22.4546
 CONDUCTIVITY     10.4857  10.7526  11.0343  11.3315  11.6450  11.9756  12.3240  12.6913
 PRANDTL NUMBER    0.6093   0.6046   0.5999   0.5950   0.5902   0.5852   0.5803   0.5753

  WITH FROZEN REACTIONS

 Cp, KJ/(KG)(K)   16.7209  16.7402  16.7596  16.7788  16.7980  16.8172  16.8363  16.8554
 CONDUCTIVITY      7.5185   7.5581   7.5979   7.6379   7.6781   7.7185   7.7592   7.8001
 PRANDTL NUMBER    0.7028   0.7027   0.7027   0.7027   0.7027   0.7027   0.7026   0.7026

 MOLE FRACTIONS

 *H               0.00387  0.00419  0.00454  0.00490  0.00530  0.00572  0.00617  0.00665
 *H2              0.99613  0.99581  0.99546  0.99510  0.99470  0.99428  0.99383  0.99335

  * THERMODYNAMIC PROPERTIES FITTED TO 20000.K

 NOTE. WEIGHT FRACTION OF FUEL IN TOTAL FUELS AND OF OXIDANT IN TOTAL OXIDANTS









               THERMODYNAMIC EQUILIBRIUM PROPERTIES AT ASSIGNED

                           TEMPERATURE AND PRESSURE

 CASE =                

             REACTANT                    WT FRACTION      ENERGY      TEMP
                                          (SEE NOTE)     KJ/KG-MOL      K  
             H2                           1.0000000         0.000      0.000

 O/F=    0.00000  %FUEL=100.000000  R,EQ.RATIO= 0.000000  PHI,EQ.RATIO= 0.000000

 THERMODYNAMIC PROPERTIES

 P, BAR           0.01650  0.01650  0.01650  0.01800  0.01800  0.01800  0.01800  0.01800
 T, K             1920.00  1930.00  1940.00  1800.00  1810.00  1820.00  1830.00  1840.00
 RHO, KG/CU M    2.0761-4 2.0648-4 2.0536-4 2.4213-4 2.4076-4 2.3941-4 2.3807-4 2.3674-4
 H, KJ/KG         25719.5  25950.0  26184.7  23201.7  23394.3  23589.1  23786.2  23985.6
 U, KJ/KG         17772.0  17958.9  18149.9  15767.7  15918.1  16070.7  16225.4  16382.5
 G, KJ/KG       -185777.5-186879.7-187983.0-171994.3-173079.2-174165.3-175252.4-176340.5
 S, KJ/(KG)(K)   110.1547 110.2744 110.3957 108.4422 108.5489 108.6563 108.7642 108.8729

 M, (1/n)           2.009    2.008    2.008    2.013    2.013    2.013    2.012    2.012
 (dLV/dLP)t      -1.00179 -1.00193 -1.00207 -1.00067 -1.00073 -1.00079 -1.00085 -1.00093
 (dLV/dLT)p        1.0508   1.0544   1.0582   1.0202   1.0218   1.0235   1.0254   1.0274
 Cp, KJ/(KG)(K)   22.8449  23.2553  23.6866  19.1594  19.3689  19.5902  19.8239  20.0707
 GAMMAs            1.2473   1.2438   1.2403   1.2881   1.2852   1.2823   1.2792   1.2762
 SON VEL,M/SEC     3148.5   3152.7   3156.8   3094.5   3099.8   3104.9   3110.0   3114.9

 TRANSPORT PROPERTIES (GASES ONLY)
   CONDUCTIVITY IN UNITS OF MILLIWATTS/(CM)(K)

 VISC,MILLIPOISE  0.32647  0.32780  0.32914  0.31082  0.31210  0.31339  0.31467  0.31596

  WITH EQUILIBRIUM REACTIONS

 Cp, KJ/(KG)(K)   22.8449  23.2553  23.6866  19.1594  19.3689  19.5902  19.8239  20.0707
 CONDUCTIVITY     13.0782  13.4856  13.9145   9.4578   9.6650   9.8838  10.1148  10.3585
 PRANDTL NUMBER    0.5703   0.5653   0.5603   0.6297   0.6255   0.6211   0.6167   0.6122

  WITH FROZEN REACTIONS

 Cp, KJ/(KG)(K)   16.8745  16.8935  16.9125  16.6427  16.6623  16.6818  16.7012  16.7206
 CONDUCTIVITY      7.8413   7.8827   7.9244   7.3610   7.3998   7.4389   7.4780   7.5174
 PRANDTL NUMBER    0.7026   0.7025   0.7025   0.7027   0.7028   0.7028   0.7028   0.7028

 MOLE FRACTIONS

 *H               0.00716  0.00770  0.00828  0.00267  0.00290  0.00315  0.00342  0.00371
 *H2              0.99284  0.99230  0.99172  0.99733  0.99710  0.99685  0.99658  0.99629

  * THERMODYNAMIC PROPERTIES FITTED TO 20000.K

 NOTE. WEIGHT FRACTION OF FUEL IN TOTAL FUELS AND OF OXIDANT IN TOTAL OXIDANTS









               THERMODYNAMIC EQUILIBRIUM PROPERTIES AT ASSIGNED

                           TEMPERATURE AND PRESSURE

 CASE =                

             REACTANT                    WT FRACTION      ENERGY      TEMP
                                          (SEE NOTE)     KJ/KG-MOL      K  
             H2                           1.0000000         0.000      0.000

 O/F=    0.00000  %FUEL=100.000000  R,EQ.RATIO= 0.000000  PHI,EQ.RATIO= 0.000000

 THERMODYNAMIC PROPERTIES

 P, BAR           0.01800  0.01800  0.01800  0.01800  0.01800  0.01800  0.01800  0.01800
 T, K             1850.00  1860.00  1870.00  1880.00  1890.00  1900.00  1910.00  1920.00
 RHO, KG/CU M    2.3543-4 2.3412-4 2.3283-4 2.3155-4 2.3028-4 2.2901-4 2.2776-4 2.2652-4
 H, KJ/KG         24187.6  24392.3  24599.8  24810.3  25023.9  25240.8  25461.1  25685.1
 U, KJ/KG         16542.0  16704.0  16868.8  17036.5  17207.1  17381.0  17558.2  17738.8
 G, KJ/KG       -177429.8-178520.2-179611.7-180704.3-181798.0-182892.9-183988.9-185086.1
 S, KJ/(KG)(K)   108.9824 109.0927 109.2040 109.3162 109.4296 109.5440 109.6597 109.7767

 M, (1/n)           2.012    2.012    2.011    2.011    2.010    2.010    2.009    2.009
 (dLV/dLP)t      -1.00100 -1.00109 -1.00117 -1.00127 -1.00137 -1.00148 -1.00159 -1.00171
 (dLV/dLT)p        1.0295   1.0318   1.0342   1.0367   1.0395   1.0423   1.0454   1.0487
 Cp, KJ/(KG)(K)   20.3310  20.6056  20.8950  21.2001  21.5214  21.8597  22.2157  22.5902
 GAMMAs            1.2730   1.2698   1.2665   1.2632   1.2599   1.2565   1.2531   1.2496
 SON VEL,M/SEC     3119.8   3124.5   3129.1   3133.7   3138.2   3142.6   3146.9   3151.2

 TRANSPORT PROPERTIES (GASES ONLY)
   CONDUCTIVITY IN UNITS OF MILLIWATTS/(CM)(K)

 VISC,MILLIPOISE  0.31725  0.31855  0.31985  0.32115  0.32246  0.32377  0.32509  0.32641

  WITH EQUILIBRIUM REACTIONS

 Cp, KJ/(KG)(K)   20.3310  20.6056  20.8950  21.2001  21.5214  21.8597  22.2157  22.5902
 CONDUCTIVITY     10.6157  10.8870  11.1732  11.4750  11.7932  12.1285  12.4818  12.8539
 PRANDTL NUMBER    0.6076   0.6029   0.5982   0.5933   0.5885   0.5836   0.5786   0.5737

  WITH FROZEN REACTIONS

 Cp, KJ/(KG)(K)   16.7399  16.7592  16.7784  16.7976  16.8167  16.8358  16.8549  16.8739
 CONDUCTIVITY      7.5569   7.5966   7.6365   7.6766   7.7169   7.7574   7.7982   7.8392
 PRANDTL NUMBER    0.7028   0.7028   0.7028   0.7027   0.7027   0.7027   0.7027   0.7026

 MOLE FRACTIONS

 *H               0.00401  0.00434  0.00470  0.00507  0.00548  0.00591  0.00637  0.00685
 *H2              0.99599  0.99566  0.99530  0.99493  0.99452  0.99409  0.99363  0.99315

  * THERMODYNAMIC PROPERTIES FITTED TO 20000.K

 NOTE. WEIGHT FRACTION OF FUEL IN TOTAL FUELS AND OF OXIDANT IN TOTAL OXIDANTS









               THERMODYNAMIC EQUILIBRIUM PROPERTIES AT ASSIGNED

                           TEMPERATURE AND PRESSURE

 CASE =                

             REACTANT                    WT FRACTION      ENERGY      TEMP
                                          (SEE NOTE)     KJ/KG-MOL      K  
             H2                           1.0000000         0.000      0.000

 O/F=    0.00000  %FUEL=100.000000  R,EQ.RATIO= 0.000000  PHI,EQ.RATIO= 0.000000

 THERMODYNAMIC PROPERTIES

 P, BAR           0.01800  0.01800  0.02000  0.02000  0.02000  0.02000  0.02000  0.02000
 T, K             1930.00  1940.00  1800.00  1810.00  1820.00  1830.00  1840.00  1850.00
 RHO, KG/CU M    2.2529-4 2.2406-4 2.6905-4 2.6754-4 2.6603-4 2.6455-4 2.6307-4 2.6161-4
 H, KJ/KG         25913.0  26144.9  23186.3  23377.6  23571.0  23766.5  23964.3  24164.5
 U, KJ/KG         17923.2  18111.5  15752.8  15902.0  16053.1  16206.4  16361.8  16519.6
 G, KJ/KG       -186184.4-187284.0-171211.1-172291.6-173373.1-174455.8-175539.5-176624.3
 S, KJ/(KG)(K)   109.8950 110.0149 107.9986 108.1045 108.2110 108.3182 108.4260 108.5345

 M, (1/n)           2.008    2.008    2.013    2.013    2.013    2.013    2.012    2.012
 (dLV/dLP)t      -1.00184 -1.00198 -1.00063 -1.00069 -1.00075 -1.00081 -1.00088 -1.00095
 (dLV/dLT)p        1.0521   1.0557   1.0191   1.0207   1.0223   1.0241   1.0260   1.0280
 Cp, KJ/(KG)(K)   22.9839  23.3976  19.0300  19.2297  19.4407  19.6633  19.8984  20.1463
 GAMMAs            1.2461   1.2427   1.2899   1.2871   1.2842   1.2813   1.2783   1.2752
 SON VEL,M/SEC     3155.4   3159.6   3096.6   3101.9   3107.2   3112.4   3117.4   3122.3

 TRANSPORT PROPERTIES (GASES ONLY)
   CONDUCTIVITY IN UNITS OF MILLIWATTS/(CM)(K)

 VISC,MILLIPOISE  0.32774  0.32908  0.31080  0.31208  0.31336  0.31464  0.31593  0.31722

  WITH EQUILIBRIUM REACTIONS

 Cp, KJ/(KG)(K)   22.9839  23.3976  19.0300  19.2297  19.4407  19.6633  19.8984  20.1463
 CONDUCTIVITY     13.2457  13.6581   9.3494   9.5480   9.7575   9.9785  10.2117  10.4576
 PRANDTL NUMBER    0.5687   0.5637   0.6326   0.6285   0.6243   0.6200   0.6156   0.6111

  WITH FROZEN REACTIONS

 Cp, KJ/(KG)(K)   16.8929  16.9118  16.6424  16.6620  16.6814  16.7008  16.7202  16.7395
 CONDUCTIVITY      7.8804   7.9220   7.3601   7.3989   7.4378   7.4769   7.5161   7.5555
 PRANDTL NUMBER    0.7026   0.7025   0.7028   0.7028   0.7028   0.7028   0.7028   0.7028

 MOLE FRACTIONS

 *H               0.00738  0.00793  0.00253  0.00275  0.00299  0.00324  0.00352  0.00381
 *H2              0.99262  0.99207  0.99747  0.99725  0.99701  0.99676  0.99648  0.99619

  * THERMODYNAMIC PROPERTIES FITTED TO 20000.K

 NOTE. WEIGHT FRACTION OF FUEL IN TOTAL FUELS AND OF OXIDANT IN TOTAL OXIDANTS









               THERMODYNAMIC EQUILIBRIUM PROPERTIES AT ASSIGNED

                           TEMPERATURE AND PRESSURE

 CASE =                

             REACTANT                    WT FRACTION      ENERGY      TEMP
                                          (SEE NOTE)     KJ/KG-MOL      K  
             H2                           1.0000000         0.000      0.000

 O/F=    0.00000  %FUEL=100.000000  R,EQ.RATIO= 0.000000  PHI,EQ.RATIO= 0.000000

 THERMODYNAMIC PROPERTIES

 P, BAR           0.02000  0.02000  0.02000  0.02000  0.02000  0.02000  0.02000  0.02000
 T, K             1860.00  1870.00  1880.00  1890.00  1900.00  1910.00  1920.00  1930.00
 RHO, KG/CU M    2.6017-4 2.5873-4 2.5731-4 2.5590-4 2.5450-4 2.5311-4 2.5173-4 2.5037-4
 H, KJ/KG         24367.2  24572.7  24781.0  24992.2  25206.6  25424.3  25645.5  25870.3
 U, KJ/KG         16679.8  16842.6  17008.2  17176.6  17348.0  17522.6  17700.6  17882.0
 G, KJ/KG       -177710.2-178797.2-179885.3-180974.5-182064.8-183156.3-184248.9-185342.7
 S, KJ/(KG)(K)   108.6438 108.7539 108.8650 108.9771 109.0902 109.2045 109.3200 109.4368

 M, (1/n)           2.012    2.011    2.011    2.011    2.010    2.010    2.009    2.009
 (dLV/dLP)t      -1.00103 -1.00111 -1.00120 -1.00130 -1.00140 -1.00151 -1.00163 -1.00175
 (dLV/dLT)p        1.0302   1.0324   1.0349   1.0374   1.0402   1.0431   1.0462   1.0494
 Cp, KJ/(KG)(K)   20.4077  20.6833  20.9737  21.2794  21.6013  21.9400  22.2962  22.6706
 GAMMAs            1.2721   1.2689   1.2657   1.2624   1.2591   1.2557   1.2523   1.2489
 SON VEL,M/SEC     3127.2   3131.9   3136.5   3141.1   3145.6   3150.0   3154.3   3158.6

 TRANSPORT PROPERTIES (GASES ONLY)
   CONDUCTIVITY IN UNITS OF MILLIWATTS/(CM)(K)

 VISC,MILLIPOISE  0.31851  0.31981  0.32111  0.32241  0.32372  0.32504  0.32635  0.32768

  WITH EQUILIBRIUM REACTIONS

 Cp, KJ/(KG)(K)   20.4077  20.6833  20.9737  21.2794  21.6013  21.9400  22.2962  22.6706
 CONDUCTIVITY     10.7170  10.9905  11.2788  11.5826  11.9027  12.2399  12.5950  12.9687
 PRANDTL NUMBER    0.6065   0.6019   0.5971   0.5923   0.5875   0.5826   0.5777   0.5728

  WITH FROZEN REACTIONS

 Cp, KJ/(KG)(K)   16.7587  16.7779  16.7971  16.8162  16.8352  16.8542  16.8732  16.8921
 CONDUCTIVITY      7.5951   7.6348   7.6748   7.7149   7.7553   7.7959   7.8367   7.8778
 PRANDTL NUMBER    0.7028   0.7028   0.7028   0.7028   0.7027   0.7027   0.7027   0.7026

 MOLE FRACTIONS

 *H               0.00412  0.00446  0.00481  0.00520  0.00560  0.00604  0.00650  0.00700
 *H2              0.99588  0.99554  0.99519  0.99480  0.99440  0.99396  0.99350  0.99300

  * THERMODYNAMIC PROPERTIES FITTED TO 20000.K

 NOTE. WEIGHT FRACTION OF FUEL IN TOTAL FUELS AND OF OXIDANT IN TOTAL OXIDANTS









               THERMODYNAMIC EQUILIBRIUM PROPERTIES AT ASSIGNED

                           TEMPERATURE AND PRESSURE

 CASE =                

             REACTANT                    WT FRACTION      ENERGY      TEMP
                                          (SEE NOTE)     KJ/KG-MOL      K  
             H2                           1.0000000         0.000      0.000

 O/F=    0.00000  %FUEL=100.000000  R,EQ.RATIO= 0.000000  PHI,EQ.RATIO= 0.000000

 THERMODYNAMIC PROPERTIES

 P, BAR           0.02000
 T, K             1940.00
 RHO, KG/CU M    2.4901-4
 H, KJ/KG         26098.9
 U, KJ/KG         18067.2
 G, KJ/KG       -186437.7
 S, KJ/(KG)(K)   109.5549

 M, (1/n)           2.008
 (dLV/dLP)t      -1.00188
 (dLV/dLT)p        1.0529
 Cp, KJ/(KG)(K)   23.0640
 GAMMAs            1.2455
 SON VEL,M/SEC     3162.8

 TRANSPORT PROPERTIES (GASES ONLY)
   CONDUCTIVITY IN UNITS OF MILLIWATTS/(CM)(K)

 VISC,MILLIPOISE  0.32901

  WITH EQUILIBRIUM REACTIONS

 Cp, KJ/(KG)(K)   23.0640
 CONDUCTIVITY     13.3620
 PRANDTL NUMBER    0.5679

  WITH FROZEN REACTIONS

 Cp, KJ/(KG)(K)   16.9110
 CONDUCTIVITY      7.9192
 PRANDTL NUMBER    0.7026

 MOLE FRACTIONS

 *H               0.00753
 *H2              0.99247

  * THERMODYNAMIC PROPERTIES FITTED TO 20000.K

 NOTE. WEIGHT FRACTION OF FUEL IN TOTAL FUELS AND OF OXIDANT IN TOTAL OXIDANTS



  
