
 *******************************************************************************

         NASA-GLENN CHEMICAL EQUILIBRIUM PROGRAM CEA2, MAY 21, 2004
                   BY  BONNIE MCBRIDE AND SANFORD GORDON
      REFS: NASA RP-1311, PART I, 1994 AND NASA RP-1311, PART II, 1996

 *******************************************************************************



  prob tp
  p,bar= 10.0,12.5,15.0,20.0,25.0,30.0,40.0,50.0,62.5,80.0,100.0,125.0,150.0,200.
 0,250.0,300.0,400.0,500.0,625.0,800.0
  t,k= 7500,7550,7600,7650,7700,7750,7800,7850,7900,7950,8000,8050,8100,8150,8200
 ,8250,8300,8350,8400,8450
  
  
  reac
  fuel H2                wt%=100.0000
  oxid H2                wt%=100.0000
  
  output short
  
  output massf
  
  output siunits
  
  output transport
  
 end





               THERMODYNAMIC EQUILIBRIUM PROPERTIES AT ASSIGNED

                           TEMPERATURE AND PRESSURE

 CASE =                

             REACTANT                    WT FRACTION      ENERGY      TEMP
                                          (SEE NOTE)     KJ/KG-MOL      K  
 FUEL        H2                           1.0000000         0.000      0.000
 OXIDANT     H2                           1.0000000         0.000      0.000

 O/F=    1.00000  %FUEL= 50.000000  R,EQ.RATIO= 0.000000  PHI,EQ.RATIO=-1.000000

 THERMODYNAMIC PROPERTIES

 P, BAR            10.000   10.000   10.000   10.000   10.000   10.000   10.000   10.000
 T, K             7500.00  7550.00  7600.00  7650.00  7700.00  7750.00  7800.00  7850.00
 RHO, KG/CU M    1.6256-2 1.6144-2 1.6034-2 1.5925-2 1.5818-2 1.5713-2 1.5609-2 1.5507-2
 H, KJ/KG        362167.0 363323.2 364472.0 365614.0 366749.7 367879.4 369003.7 370122.7
 U, KJ/KG        300652.9 301382.1 302104.8 302821.4 303532.4 304238.0 304938.7 305634.8
 G, KJ/KG       -845521.3-853576.4-861639.1-869709.4-877787.1-885872.2-893964.5-902064.0
 S, KJ/(KG)(K)   161.0251 161.1787 161.3304 161.4802 161.6282 161.7744 161.9190 162.0620

 M, (1/n)           1.014    1.013    1.013    1.013    1.013    1.013    1.012    1.012
 (dLV/dLP)t      -1.00565 -1.00538 -1.00514 -1.00490 -1.00468 -1.00447 -1.00427 -1.00409
 (dLV/dLT)p        1.0420   1.0398   1.0377   1.0357   1.0339   1.0322   1.0306   1.0290
 Cp, KJ/(KG)(K)   23.1993  23.0479  22.9069  22.7755  22.6529  22.5384  22.4315  22.3316
 GAMMAs            1.6083   1.6115   1.6145   1.6174   1.6201   1.6226   1.6250   1.6272
 SON VEL,M/SEC     9946.5   9990.9  10034.6  10077.7  10120.1  10161.9  10203.1  10243.8

 TRANSPORT PROPERTIES (GASES ONLY)
   CONDUCTIVITY IN UNITS OF MILLIWATTS/(CM)(K)

 VISC,MILLIPOISE  0.78958  0.79418  0.79880  0.80344  0.80810  0.81279  0.81749  0.82222

  WITH EQUILIBRIUM REACTIONS

 Cp, KJ/(KG)(K)   23.1993  23.0479  22.9069  22.7755  22.6529  22.5384  22.4315  22.3316
 CONDUCTIVITY     28.0144  27.9620  27.9229  27.8961  27.8808  27.8761  27.8814  27.8958
 PRANDTL NUMBER    0.6539   0.6546   0.6553   0.6560   0.6566   0.6572   0.6577   0.6582

  WITH FROZEN REACTIONS

 Cp, KJ/(KG)(K)   20.6357  20.6360  20.6363  20.6364  20.6365  20.6365  20.6365  20.6363
 CONDUCTIVITY     24.3039  24.4507  24.5981  24.7459  24.8942  25.0429  25.1921  25.3417
 PRANDTL NUMBER    0.6704   0.6703   0.6701   0.6700   0.6699   0.6698   0.6697   0.6696

 MASS FRACTIONS

 *H               0.98857  0.98911  0.98962  0.99010  0.99055  0.99098  0.99138  0.99176
 *H2              0.01143  0.01089  0.01038  0.00990  0.00945  0.00902  0.00862  0.00824

  * THERMODYNAMIC PROPERTIES FITTED TO 20000.K

 NOTE. WEIGHT FRACTION OF FUEL IN TOTAL FUELS AND OF OXIDANT IN TOTAL OXIDANTS









               THERMODYNAMIC EQUILIBRIUM PROPERTIES AT ASSIGNED

                           TEMPERATURE AND PRESSURE

 CASE =                

             REACTANT                    WT FRACTION      ENERGY      TEMP
                                          (SEE NOTE)     KJ/KG-MOL      K  
 FUEL        H2                           1.0000000         0.000      0.000
 OXIDANT     H2                           1.0000000         0.000      0.000

 O/F=    1.00000  %FUEL= 50.000000  R,EQ.RATIO= 0.000000  PHI,EQ.RATIO=-1.000000

 THERMODYNAMIC PROPERTIES

 P, BAR            10.000   10.000   10.000   10.000   10.000   10.000   10.000   10.000
 T, K             7900.00  7950.00  8000.00  8050.00  8100.00  8150.00  8200.00  8250.00
 RHO, KG/CU M    1.5406-2 1.5306-2 1.5208-2 1.5112-2 1.5016-2 1.4922-2 1.4829-2 1.4737-2
 H, KJ/KG        371236.9 372346.6 373452.1 374553.6 375651.3 376745.6 377836.6 378924.6
 U, KJ/KG        306326.6 307014.4 307698.4 308378.8 309056.0 309730.1 310401.2 311069.7
 G, KJ/KG       -910170.7-918284.4-926405.0-934532.5-942666.9-950808.1-958955.9-967110.4
 S, KJ/(KG)(K)   162.2035 162.3435 162.4821 162.6194 162.7553 162.8900 163.0235 163.1558

 M, (1/n)           1.012    1.012    1.012    1.011    1.011    1.011    1.011    1.011
 (dLV/dLP)t      -1.00391 -1.00374 -1.00359 -1.00344 -1.00330 -1.00316 -1.00303 -1.00291
 (dLV/dLT)p        1.0276   1.0263   1.0250   1.0238   1.0227   1.0216   1.0206   1.0197
 Cp, KJ/(KG)(K)   22.2381  22.1506  22.0687  21.9919  21.9199  21.8523  21.7889  21.7293
 GAMMAs            1.6293   1.6313   1.6332   1.6350   1.6367   1.6382   1.6397   1.6411
 SON VEL,M/SEC    10284.0  10323.7  10362.9  10401.7  10440.0  10477.9  10515.5  10552.6

 TRANSPORT PROPERTIES (GASES ONLY)
   CONDUCTIVITY IN UNITS OF MILLIWATTS/(CM)(K)

 VISC,MILLIPOISE  0.82696  0.83172  0.83649  0.84128  0.84608  0.85089  0.85572  0.86056

  WITH EQUILIBRIUM REACTIONS

 Cp, KJ/(KG)(K)   22.2381  22.1506  22.0687  21.9919  21.9199  21.8523  21.7889  21.7293
 CONDUCTIVITY     27.9188  27.9498  27.9882  28.0336  28.0854  28.1433  28.2068  28.2756
 PRANDTL NUMBER    0.6587   0.6591   0.6596   0.6600   0.6603   0.6607   0.6610   0.6613

  WITH FROZEN REACTIONS

 Cp, KJ/(KG)(K)   20.6362  20.6359  20.6356  20.6353  20.6349  20.6345  20.6341  20.6336
 CONDUCTIVITY     25.4916  25.6418  25.7924  25.9434  26.0946  26.2461  26.3979  26.5499
 PRANDTL NUMBER    0.6694   0.6693   0.6692   0.6692   0.6691   0.6690   0.6689   0.6688

 MASS FRACTIONS

 *H               0.99212  0.99245  0.99277  0.99308  0.99336  0.99364  0.99389  0.99414
 *H2              0.00788  0.00755  0.00723  0.00692  0.00664  0.00636  0.00611  0.00586

  * THERMODYNAMIC PROPERTIES FITTED TO 20000.K

 NOTE. WEIGHT FRACTION OF FUEL IN TOTAL FUELS AND OF OXIDANT IN TOTAL OXIDANTS









               THERMODYNAMIC EQUILIBRIUM PROPERTIES AT ASSIGNED

                           TEMPERATURE AND PRESSURE

 CASE =                

             REACTANT                    WT FRACTION      ENERGY      TEMP
                                          (SEE NOTE)     KJ/KG-MOL      K  
 FUEL        H2                           1.0000000         0.000      0.000
 OXIDANT     H2                           1.0000000         0.000      0.000

 O/F=    1.00000  %FUEL= 50.000000  R,EQ.RATIO= 0.000000  PHI,EQ.RATIO=-1.000000

 THERMODYNAMIC PROPERTIES

 P, BAR            10.000   10.000   10.000   10.000   12.500   12.500   12.500   12.500
 T, K             8300.00  8350.00  8400.00  8450.00  7500.00  7550.00  7600.00  7650.00
 RHO, KG/CU M    1.4647-2 1.4558-2 1.4469-2 1.4382-2 2.0349-2 2.0208-2 2.0068-2 1.9931-2
 H, KJ/KG        380009.6 381092.0 382171.7 383249.1 361523.6 362709.6 363886.5 365055.1
 U, KJ/KG        311735.5 312399.0 313060.2 313719.2 300096.0 300851.6 301599.1 302339.1
 G, KJ/KG       -975271.5-983439.1-991613.1-999793.6-831804.1-839763.6-847730.8-855705.9
 S, KJ/(KG)(K)   163.2869 163.4169 163.5458 163.6737 159.1104 159.2680 159.4233 159.5766

 M, (1/n)           1.011    1.011    1.011    1.010    1.015    1.015    1.014    1.014
 (dLV/dLP)t      -1.00280 -1.00269 -1.00259 -1.00249 -1.00701 -1.00669 -1.00638 -1.00609
 (dLV/dLT)p        1.0188   1.0180   1.0172   1.0164   1.0522   1.0494   1.0468   1.0444
 Cp, KJ/(KG)(K)   21.6732  21.6205  21.5709  21.5243  23.8137  23.6271  23.4531  23.2909
 GAMMAs            1.6424   1.6437   1.6449   1.6460   1.5968   1.6005   1.6040   1.6073
 SON VEL,M/SEC    10589.5  10625.9  10662.1  10697.9   9903.8   9950.0   9995.5  10040.2

 TRANSPORT PROPERTIES (GASES ONLY)
   CONDUCTIVITY IN UNITS OF MILLIWATTS/(CM)(K)

 VISC,MILLIPOISE  0.86541  0.87028  0.87515  0.88003  0.79183  0.79633  0.80087  0.80543

  WITH EQUILIBRIUM REACTIONS

 Cp, KJ/(KG)(K)   21.6732  21.6205  21.5709  21.5243  23.8137  23.6271  23.4531  23.2909
 CONDUCTIVITY     28.3493  28.4276  28.5102  28.5969  28.9496  28.8488  28.7643  28.6949
 PRANDTL NUMBER    0.6616   0.6619   0.6621   0.6624   0.6514   0.6522   0.6530   0.6537

  WITH FROZEN REACTIONS

 Cp, KJ/(KG)(K)   20.6331  20.6326  20.6321  20.6316  20.6363  20.6365  20.6367  20.6368
 CONDUCTIVITY     26.7022  26.8547  27.0074  27.1604  24.3442  24.4893  24.6350  24.7813
 PRANDTL NUMBER    0.6687   0.6686   0.6686   0.6685   0.6712   0.6710   0.6709   0.6707

 MASS FRACTIONS

 *H               0.99437  0.99459  0.99480  0.99500  0.98578  0.98645  0.98708  0.98767
 *H2              0.00563  0.00541  0.00520  0.00500  0.01422  0.01355  0.01292  0.01233

  * THERMODYNAMIC PROPERTIES FITTED TO 20000.K

 NOTE. WEIGHT FRACTION OF FUEL IN TOTAL FUELS AND OF OXIDANT IN TOTAL OXIDANTS









               THERMODYNAMIC EQUILIBRIUM PROPERTIES AT ASSIGNED

                           TEMPERATURE AND PRESSURE

 CASE =                

             REACTANT                    WT FRACTION      ENERGY      TEMP
                                          (SEE NOTE)     KJ/KG-MOL      K  
 FUEL        H2                           1.0000000         0.000      0.000
 OXIDANT     H2                           1.0000000         0.000      0.000

 O/F=    1.00000  %FUEL= 50.000000  R,EQ.RATIO= 0.000000  PHI,EQ.RATIO=-1.000000

 THERMODYNAMIC PROPERTIES

 P, BAR            12.500   12.500   12.500   12.500   12.500   12.500   12.500   12.500
 T, K             7700.00  7750.00  7800.00  7850.00  7900.00  7950.00  8000.00  8050.00
 RHO, KG/CU M    1.9796-2 1.9663-2 1.9532-2 1.9403-2 1.9276-2 1.9151-2 1.9027-2 1.8906-2
 H, KJ/KG        366215.8 367369.2 368515.8 369655.9 370790.1 371918.7 373042.1 374160.6
 U, KJ/KG        303072.1 303798.6 304519.0 305233.7 305943.1 306647.5 307347.2 308042.6
 G, KJ/KG       -863688.5-871678.6-879676.2-887681.0-895693.2-903712.4-911738.8-919772.2
 S, KJ/(KG)(K)   159.7278 159.8771 160.0246 160.1703 160.3143 160.4568 160.5976 160.7370

 M, (1/n)           1.014    1.014    1.013    1.013    1.013    1.013    1.012    1.012
 (dLV/dLP)t      -1.00582 -1.00556 -1.00531 -1.00508 -1.00486 -1.00466 -1.00446 -1.00428
 (dLV/dLT)p        1.0421   1.0400   1.0380   1.0361   1.0343   1.0327   1.0311   1.0296
 Cp, KJ/(KG)(K)   23.1396  22.9982  22.8661  22.7425  22.6269  22.5187  22.4173  22.3222
 GAMMAs            1.6105   1.6135   1.6163   1.6189   1.6214   1.6238   1.6260   1.6282
 SON VEL,M/SEC    10084.2  10127.6  10170.3  10212.5  10254.0  10295.0  10335.5  10375.5

 TRANSPORT PROPERTIES (GASES ONLY)
   CONDUCTIVITY IN UNITS OF MILLIWATTS/(CM)(K)

 VISC,MILLIPOISE  0.81001  0.81463  0.81926  0.82392  0.82860  0.83329  0.83801  0.84274

  WITH EQUILIBRIUM REACTIONS

 Cp, KJ/(KG)(K)   23.1396  22.9982  22.8661  22.7425  22.6269  22.5187  22.4173  22.3222
 CONDUCTIVITY     28.6396  28.5972  28.5670  28.5481  28.5396  28.5410  28.5515  28.5706
 PRANDTL NUMBER    0.6545   0.6551   0.6558   0.6564   0.6569   0.6575   0.6580   0.6584

  WITH FROZEN REACTIONS

 Cp, KJ/(KG)(K)   20.6368  20.6367  20.6366  20.6364  20.6362  20.6359  20.6356  20.6352
 CONDUCTIVITY     24.9282  25.0756  25.2234  25.3717  25.5204  25.6696  25.8191  25.9690
 PRANDTL NUMBER    0.6706   0.6704   0.6703   0.6701   0.6700   0.6699   0.6698   0.6697

 MASS FRACTIONS

 *H               0.98823  0.98876  0.98926  0.98973  0.99017  0.99059  0.99099  0.99137
 *H2              0.01177  0.01124  0.01074  0.01027  0.00983  0.00941  0.00901  0.00863

  * THERMODYNAMIC PROPERTIES FITTED TO 20000.K

 NOTE. WEIGHT FRACTION OF FUEL IN TOTAL FUELS AND OF OXIDANT IN TOTAL OXIDANTS









               THERMODYNAMIC EQUILIBRIUM PROPERTIES AT ASSIGNED

                           TEMPERATURE AND PRESSURE

 CASE =                

             REACTANT                    WT FRACTION      ENERGY      TEMP
                                          (SEE NOTE)     KJ/KG-MOL      K  
 FUEL        H2                           1.0000000         0.000      0.000
 OXIDANT     H2                           1.0000000         0.000      0.000

 O/F=    1.00000  %FUEL= 50.000000  R,EQ.RATIO= 0.000000  PHI,EQ.RATIO=-1.000000

 THERMODYNAMIC PROPERTIES

 P, BAR            12.500   12.500   12.500   12.500   12.500   12.500   12.500   12.500
 T, K             8100.00  8150.00  8200.00  8250.00  8300.00  8350.00  8400.00  8450.00
 RHO, KG/CU M    1.8786-2 1.8667-2 1.8550-2 1.8435-2 1.8321-2 1.8209-2 1.8098-2 1.7989-2
 H, KJ/KG        375274.4 376384.0 377489.5 378591.1 379689.2 380783.9 381875.5 382964.1
 U, KJ/KG        308733.8 309421.3 310105.1 310785.5 311462.8 312137.1 312808.5 313477.4
 G, KJ/KG       -927812.5-935859.6-943913.6-951974.3-960041.7-968115.6-976196.1-984283.1
 S, KJ/(KG)(K)   160.8749 161.0115 161.1467 161.2807 161.4134 161.5449 161.6752 161.8044

 M, (1/n)           1.012    1.012    1.012    1.012    1.011    1.011    1.011    1.011
 (dLV/dLP)t      -1.00410 -1.00394 -1.00378 -1.00363 -1.00349 -1.00335 -1.00322 -1.00310
 (dLV/dLT)p        1.0283   1.0269   1.0257   1.0245   1.0234   1.0224   1.0214   1.0205
 Cp, KJ/(KG)(K)   22.2330  22.1494  22.0708  21.9969  21.9275  21.8622  21.8007  21.7429
 GAMMAs            1.6302   1.6320   1.6338   1.6355   1.6371   1.6386   1.6400   1.6414
 SON VEL,M/SEC    10415.0  10454.0  10492.6  10530.7  10568.5  10605.9  10642.9  10679.5

 TRANSPORT PROPERTIES (GASES ONLY)
   CONDUCTIVITY IN UNITS OF MILLIWATTS/(CM)(K)

 VISC,MILLIPOISE  0.84749  0.85226  0.85704  0.86183  0.86664  0.87146  0.87630  0.88114

  WITH EQUILIBRIUM REACTIONS

 Cp, KJ/(KG)(K)   22.2330  22.1494  22.0708  21.9969  21.9275  21.8622  21.8007  21.7429
 CONDUCTIVITY     28.5975  28.6320  28.6733  28.7212  28.7751  28.8347  28.8996  28.9695
 PRANDTL NUMBER    0.6589   0.6593   0.6597   0.6601   0.6604   0.6607   0.6610   0.6613

  WITH FROZEN REACTIONS

 Cp, KJ/(KG)(K)   20.6348  20.6343  20.6338  20.6333  20.6328  20.6323  20.6318  20.6312
 CONDUCTIVITY     26.1193  26.2698  26.4207  26.5719  26.7234  26.8751  27.0271  27.1794
 PRANDTL NUMBER    0.6695   0.6694   0.6693   0.6692   0.6691   0.6690   0.6689   0.6689

 MASS FRACTIONS

 *H               0.99173  0.99206  0.99239  0.99269  0.99298  0.99325  0.99351  0.99376
 *H2              0.00827  0.00794  0.00761  0.00731  0.00702  0.00675  0.00649  0.00624

  * THERMODYNAMIC PROPERTIES FITTED TO 20000.K

 NOTE. WEIGHT FRACTION OF FUEL IN TOTAL FUELS AND OF OXIDANT IN TOTAL OXIDANTS









               THERMODYNAMIC EQUILIBRIUM PROPERTIES AT ASSIGNED

                           TEMPERATURE AND PRESSURE

 CASE =                

             REACTANT                    WT FRACTION      ENERGY      TEMP
                                          (SEE NOTE)     KJ/KG-MOL      K  
 FUEL        H2                           1.0000000         0.000      0.000
 OXIDANT     H2                           1.0000000         0.000      0.000

 O/F=    1.00000  %FUEL= 50.000000  R,EQ.RATIO= 0.000000  PHI,EQ.RATIO=-1.000000

 THERMODYNAMIC PROPERTIES

 P, BAR            15.000   15.000   15.000   15.000   15.000   15.000   15.000   15.000
 T, K             7500.00  7550.00  7600.00  7650.00  7700.00  7750.00  7800.00  7850.00
 RHO, KG/CU M    2.4453-2 2.4281-2 2.4113-2 2.3946-2 2.3783-2 2.3622-2 2.3464-2 2.3308-2
 H, KJ/KG        360885.6 362100.9 363305.5 364500.2 365685.6 366862.3 368031.0 369192.0
 U, KJ/KG        299543.8 300325.3 301097.3 301860.4 302615.2 303362.2 304102.0 304835.1
 G, KJ/KG       -820612.1-828492.8-836381.5-844278.1-852182.5-860094.6-868014.2-875941.3
 S, KJ/(KG)(K)   157.5330 157.6945 157.8536 158.0102 158.1647 158.3170 158.4673 158.6157

 M, (1/n)           1.017    1.016    1.016    1.015    1.015    1.015    1.014    1.014
 (dLV/dLP)t      -1.00835 -1.00797 -1.00760 -1.00726 -1.00694 -1.00663 -1.00634 -1.00607
 (dLV/dLT)p        1.0621   1.0589   1.0558   1.0530   1.0503   1.0477   1.0454   1.0431
 Cp, KJ/(KG)(K)   24.4176  24.1968  23.9910  23.7988  23.6194  23.4518  23.2950  23.1484
 GAMMAs            1.5861   1.5903   1.5942   1.5980   1.6015   1.6049   1.6081   1.6111
 SON VEL,M/SEC     9863.8   9911.6   9958.6  10004.8  10050.3  10095.0  10139.1  10182.5

 TRANSPORT PROPERTIES (GASES ONLY)
   CONDUCTIVITY IN UNITS OF MILLIWATTS/(CM)(K)

 VISC,MILLIPOISE  0.79405  0.79847  0.80292  0.80740  0.81191  0.81645  0.82101  0.82561

  WITH EQUILIBRIUM REACTIONS

 Cp, KJ/(KG)(K)   24.4176  24.1968  23.9910  23.7988  23.6194  23.4518  23.2950  23.1484
 CONDUCTIVITY     29.8718  29.7240  29.5952  29.4842  29.3896  29.3104  29.2455  29.1938
 PRANDTL NUMBER    0.6491   0.6500   0.6509   0.6517   0.6525   0.6533   0.6540   0.6546

  WITH FROZEN REACTIONS

 Cp, KJ/(KG)(K)   20.6368  20.6370  20.6371  20.6371  20.6370  20.6369  20.6367  20.6365
 CONDUCTIVITY     24.3842  24.5276  24.6717  24.8165  24.9620  25.1079  25.2545  25.4016
 PRANDTL NUMBER    0.6720   0.6718   0.6716   0.6714   0.6712   0.6711   0.6709   0.6707

 MASS FRACTIONS

 *H               0.98300  0.98380  0.98455  0.98526  0.98593  0.98656  0.98715  0.98771
 *H2              0.01700  0.01620  0.01545  0.01474  0.01407  0.01344  0.01285  0.01229

  * THERMODYNAMIC PROPERTIES FITTED TO 20000.K

 NOTE. WEIGHT FRACTION OF FUEL IN TOTAL FUELS AND OF OXIDANT IN TOTAL OXIDANTS









               THERMODYNAMIC EQUILIBRIUM PROPERTIES AT ASSIGNED

                           TEMPERATURE AND PRESSURE

 CASE =                

             REACTANT                    WT FRACTION      ENERGY      TEMP
                                          (SEE NOTE)     KJ/KG-MOL      K  
 FUEL        H2                           1.0000000         0.000      0.000
 OXIDANT     H2                           1.0000000         0.000      0.000

 O/F=    1.00000  %FUEL= 50.000000  R,EQ.RATIO= 0.000000  PHI,EQ.RATIO=-1.000000

 THERMODYNAMIC PROPERTIES

 P, BAR            15.000   15.000   15.000   15.000   15.000   15.000   15.000   15.000
 T, K             7900.00  7950.00  8000.00  8050.00  8100.00  8150.00  8200.00  8250.00
 RHO, KG/CU M    2.3154-2 2.3002-2 2.2853-2 2.2706-2 2.2561-2 2.2418-2 2.2277-2 2.2138-2
 H, KJ/KG        370346.0 371493.3 372634.4 373769.6 374899.4 376024.0 377143.8 378259.1
 U, KJ/KG        305561.8 306282.7 306997.9 307708.0 308413.2 309113.9 309810.3 310502.6
 G, KJ/KG       -883875.7-891817.4-899766.4-907722.4-915685.5-923655.6-931632.5-939616.2
 S, KJ/(KG)(K)   158.7622 158.9070 159.0501 159.1916 159.3315 159.4699 159.6069 159.7425

 M, (1/n)           1.014    1.014    1.013    1.013    1.013    1.013    1.013    1.012
 (dLV/dLP)t      -1.00581 -1.00556 -1.00533 -1.00511 -1.00490 -1.00470 -1.00452 -1.00434
 (dLV/dLT)p        1.0410   1.0390   1.0372   1.0354   1.0338   1.0322   1.0307   1.0293
 Cp, KJ/(KG)(K)   23.0111  22.8826  22.7621  22.6491  22.5431  22.4436  22.3501  22.2622
 GAMMAs            1.6139   1.6166   1.6192   1.6216   1.6239   1.6261   1.6282   1.6301
 SON VEL,M/SEC    10225.3  10267.5  10309.2  10350.2  10390.8  10430.8  10470.4  10509.5

 TRANSPORT PROPERTIES (GASES ONLY)
   CONDUCTIVITY IN UNITS OF MILLIWATTS/(CM)(K)

 VISC,MILLIPOISE  0.83022  0.83486  0.83952  0.84420  0.84890  0.85362  0.85835  0.86310

  WITH EQUILIBRIUM REACTIONS

 Cp, KJ/(KG)(K)   23.0111  22.8826  22.7621  22.6491  22.5431  22.4436  22.3501  22.2622
 CONDUCTIVITY     29.1545  29.1268  29.1099  29.1030  29.1055  29.1168  29.1364  29.1636
 PRANDTL NUMBER    0.6553   0.6559   0.6565   0.6570   0.6575   0.6580   0.6584   0.6589

  WITH FROZEN REACTIONS

 Cp, KJ/(KG)(K)   20.6362  20.6359  20.6355  20.6351  20.6346  20.6341  20.6336  20.6331
 CONDUCTIVITY     25.5491  25.6972  25.8456  25.9945  26.1438  26.2935  26.4435  26.5939
 PRANDTL NUMBER    0.6706   0.6704   0.6703   0.6701   0.6700   0.6699   0.6698   0.6696

 MASS FRACTIONS

 *H               0.98824  0.98875  0.98922  0.98967  0.99010  0.99050  0.99088  0.99125
 *H2              0.01176  0.01125  0.01078  0.01033  0.00990  0.00950  0.00912  0.00875

  * THERMODYNAMIC PROPERTIES FITTED TO 20000.K

 NOTE. WEIGHT FRACTION OF FUEL IN TOTAL FUELS AND OF OXIDANT IN TOTAL OXIDANTS









               THERMODYNAMIC EQUILIBRIUM PROPERTIES AT ASSIGNED

                           TEMPERATURE AND PRESSURE

 CASE =                

             REACTANT                    WT FRACTION      ENERGY      TEMP
                                          (SEE NOTE)     KJ/KG-MOL      K  
 FUEL        H2                           1.0000000         0.000      0.000
 OXIDANT     H2                           1.0000000         0.000      0.000

 O/F=    1.00000  %FUEL= 50.000000  R,EQ.RATIO= 0.000000  PHI,EQ.RATIO=-1.000000

 THERMODYNAMIC PROPERTIES

 P, BAR            15.000   15.000   15.000   15.000   20.000   20.000   20.000   20.000
 T, K             8300.00  8350.00  8400.00  8450.00  7500.00  7550.00  7600.00  7650.00
 RHO, KG/CU M    2.2001-2 2.1866-2 2.1732-2 2.1600-2 3.2694-2 3.2461-2 3.2231-2 3.2005-2
 H, KJ/KG        379370.2 380477.2 381580.4 382680.1 359625.6 360898.1 362156.8 363402.6
 U, KJ/KG        311191.2 311876.2 312557.9 313236.4 298453.1 299285.3 300105.0 300913.3
 G, KJ/KG       -947606.7-955603.9-963607.7-971618.0-802988.4-810743.4-818506.8-826278.4
 S, KJ/(KG)(K)   159.8767 160.0097 160.1414 160.2720 155.0152 155.1843 155.3505 155.5139

 M, (1/n)           1.012    1.012    1.012    1.012    1.019    1.019    1.018    1.018
 (dLV/dLP)t      -1.00417 -1.00401 -1.00385 -1.00371 -1.01098 -1.01048 -1.01001 -1.00957
 (dLV/dLT)p        1.0280   1.0268   1.0256   1.0245   1.0817   1.0775   1.0735   1.0698
 Cp, KJ/(KG)(K)   22.1796  22.1019  22.0287  21.9598  25.5951  25.3091  25.0420  24.7925
 GAMMAs            1.6319   1.6337   1.6353   1.6369   1.5671   1.5719   1.5766   1.5810
 SON VEL,M/SEC    10548.2  10586.4  10624.2  10661.7   9791.0   9841.3   9890.8   9939.5

 TRANSPORT PROPERTIES (GASES ONLY)
   CONDUCTIVITY IN UNITS OF MILLIWATTS/(CM)(K)

 VISC,MILLIPOISE  0.86786  0.87264  0.87744  0.88225  0.79843  0.80267  0.80696  0.81128

  WITH EQUILIBRIUM REACTIONS

 Cp, KJ/(KG)(K)   22.1796  22.1019  22.0287  21.9598  25.5951  25.3091  25.0420  24.7925
 CONDUCTIVITY     29.1980  29.2391  29.2865  29.3399  31.6782  31.4399  31.2259  31.0345
 PRANDTL NUMBER    0.6593   0.6596   0.6600   0.6603   0.6451   0.6461   0.6471   0.6481

  WITH FROZEN REACTIONS

 Cp, KJ/(KG)(K)   20.6325  20.6320  20.6314  20.6308  20.6379  20.6379  20.6379  20.6377
 CONDUCTIVITY     26.7445  26.8955  27.0468  27.1984  24.4631  24.6033  24.7443  24.8862
 PRANDTL NUMBER    0.6695   0.6694   0.6693   0.6692   0.6736   0.6733   0.6730   0.6728

 MASS FRACTIONS

 *H               0.99159  0.99192  0.99223  0.99253  0.97753  0.97857  0.97956  0.98049
 *H2              0.00841  0.00808  0.00777  0.00747  0.02247  0.02143  0.02044  0.01951

  * THERMODYNAMIC PROPERTIES FITTED TO 20000.K

 NOTE. WEIGHT FRACTION OF FUEL IN TOTAL FUELS AND OF OXIDANT IN TOTAL OXIDANTS









               THERMODYNAMIC EQUILIBRIUM PROPERTIES AT ASSIGNED

                           TEMPERATURE AND PRESSURE

 CASE =                

             REACTANT                    WT FRACTION      ENERGY      TEMP
                                          (SEE NOTE)     KJ/KG-MOL      K  
 FUEL        H2                           1.0000000         0.000      0.000
 OXIDANT     H2                           1.0000000         0.000      0.000

 O/F=    1.00000  %FUEL= 50.000000  R,EQ.RATIO= 0.000000  PHI,EQ.RATIO=-1.000000

 THERMODYNAMIC PROPERTIES

 P, BAR            20.000   20.000   20.000   20.000   20.000   20.000   20.000   20.000
 T, K             7700.00  7750.00  7800.00  7850.00  7900.00  7950.00  8000.00  8050.00
 RHO, KG/CU M    3.1784-2 3.1565-2 3.1351-2 3.1139-2 3.0931-2 3.0727-2 3.0525-2 3.0326-2
 H, KJ/KG        364636.3 365858.8 367070.6 368272.6 369465.4 370649.4 371825.4 372993.7
 U, KJ/KG        301710.7 302498.1 303276.0 304045.1 304806.0 305559.1 306305.0 307044.1
 G, KJ/KG       -834058.1-841845.8-849641.4-857444.7-865255.6-873074.0-880899.9-888733.1
 S, KJ/(KG)(K)   155.6746 155.8329 155.9887 156.1423 156.2938 156.4432 156.5907 156.7362

 M, (1/n)           1.017    1.017    1.017    1.016    1.016    1.016    1.015    1.015
 (dLV/dLP)t      -1.00914 -1.00874 -1.00837 -1.00801 -1.00767 -1.00735 -1.00705 -1.00676
 (dLV/dLT)p        1.0662   1.0629   1.0598   1.0569   1.0542   1.0516   1.0491   1.0468
 Cp, KJ/(KG)(K)   24.5591  24.3409  24.1366  23.9454  23.7662  23.5982  23.4407  23.2929
 GAMMAs            1.5852   1.5892   1.5930   1.5966   1.6001   1.6034   1.6065   1.6094
 SON VEL,M/SEC     9987.4  10034.5  10080.9  10126.6  10171.5  10215.8  10259.5  10302.5

 TRANSPORT PROPERTIES (GASES ONLY)
   CONDUCTIVITY IN UNITS OF MILLIWATTS/(CM)(K)

 VISC,MILLIPOISE  0.81565  0.82005  0.82448  0.82894  0.83344  0.83796  0.84251  0.84708

  WITH EQUILIBRIUM REACTIONS

 Cp, KJ/(KG)(K)   24.5591  24.3409  24.1366  23.9454  23.7662  23.5982  23.4407  23.2929
 CONDUCTIVITY     30.8642  30.7136  30.5812  30.4660  30.3668  30.2824  30.2120  30.1546
 PRANDTL NUMBER    0.6490   0.6499   0.6507   0.6515   0.6523   0.6530   0.6537   0.6543

  WITH FROZEN REACTIONS

 Cp, KJ/(KG)(K)   20.6375  20.6373  20.6370  20.6367  20.6363  20.6358  20.6354  20.6348
 CONDUCTIVITY     25.0288  25.1721  25.3161  25.4608  25.6060  25.7519  25.8983  26.0452
 PRANDTL NUMBER    0.6725   0.6723   0.6721   0.6719   0.6717   0.6715   0.6713   0.6711

 MASS FRACTIONS

 *H               0.98137  0.98219  0.98298  0.98372  0.98442  0.98508  0.98570  0.98630
 *H2              0.01863  0.01781  0.01702  0.01628  0.01558  0.01492  0.01430  0.01370

  * THERMODYNAMIC PROPERTIES FITTED TO 20000.K

 NOTE. WEIGHT FRACTION OF FUEL IN TOTAL FUELS AND OF OXIDANT IN TOTAL OXIDANTS









               THERMODYNAMIC EQUILIBRIUM PROPERTIES AT ASSIGNED

                           TEMPERATURE AND PRESSURE

 CASE =                

             REACTANT                    WT FRACTION      ENERGY      TEMP
                                          (SEE NOTE)     KJ/KG-MOL      K  
 FUEL        H2                           1.0000000         0.000      0.000
 OXIDANT     H2                           1.0000000         0.000      0.000

 O/F=    1.00000  %FUEL= 50.000000  R,EQ.RATIO= 0.000000  PHI,EQ.RATIO=-1.000000

 THERMODYNAMIC PROPERTIES

 P, BAR            20.000   20.000   20.000   20.000   20.000   20.000   20.000   20.000
 T, K             8100.00  8150.00  8200.00  8250.00  8300.00  8350.00  8400.00  8450.00
 RHO, KG/CU M    3.0130-2 2.9938-2 2.9747-2 2.9560-2 2.9375-2 2.9193-2 2.9013-2 2.8836-2
 H, KJ/KG        374154.8 375309.2 376457.3 377599.5 378736.0 379867.3 380993.7 382115.4
 U, KJ/KG        307776.8 308503.5 309224.6 309940.5 310651.4 311357.6 312059.5 312757.2
 G, KJ/KG       -896573.5-904421.0-912275.7-920137.3-928005.8-935881.1-943763.2-951652.0
 S, KJ/(KG)(K)   156.8800 157.0221 157.1626 157.3014 157.4388 157.5747 157.7092 157.8423

 M, (1/n)           1.015    1.014    1.014    1.014    1.014    1.013    1.013    1.013
 (dLV/dLP)t      -1.00648 -1.00622 -1.00598 -1.00574 -1.00552 -1.00531 -1.00511 -1.00491
 (dLV/dLT)p        1.0446   1.0426   1.0407   1.0388   1.0371   1.0355   1.0339   1.0325
 Cp, KJ/(KG)(K)   23.1541  23.0237  22.9012  22.7859  22.6775  22.5755  22.4794  22.3889
 GAMMAs            1.6123   1.6149   1.6175   1.6199   1.6222   1.6243   1.6264   1.6283
 SON VEL,M/SEC    10345.0  10386.9  10428.2  10469.0  10509.3  10549.1  10588.4  10627.3

 TRANSPORT PROPERTIES (GASES ONLY)
   CONDUCTIVITY IN UNITS OF MILLIWATTS/(CM)(K)

 VISC,MILLIPOISE  0.85168  0.85630  0.86095  0.86561  0.87029  0.87499  0.87971  0.88444

  WITH EQUILIBRIUM REACTIONS

 Cp, KJ/(KG)(K)   23.1541  23.0237  22.9012  22.7859  22.6775  22.5755  22.4794  22.3889
 CONDUCTIVITY     30.1093  30.0754  30.0522  30.0390  30.0351  30.0399  30.0530  30.0738
 PRANDTL NUMBER    0.6549   0.6555   0.6561   0.6566   0.6571   0.6576   0.6580   0.6584

  WITH FROZEN REACTIONS

 Cp, KJ/(KG)(K)   20.6343  20.6337  20.6331  20.6325  20.6319  20.6313  20.6306  20.6300
 CONDUCTIVITY     26.1926  26.3404  26.4887  26.6374  26.7866  26.9361  27.0859  27.2361
 PRANDTL NUMBER    0.6709   0.6708   0.6706   0.6705   0.6703   0.6702   0.6701   0.6699

 MASS FRACTIONS

 *H               0.98686  0.98739  0.98790  0.98838  0.98884  0.98927  0.98968  0.99007
 *H2              0.01314  0.01261  0.01210  0.01162  0.01116  0.01073  0.01032  0.00993

  * THERMODYNAMIC PROPERTIES FITTED TO 20000.K

 NOTE. WEIGHT FRACTION OF FUEL IN TOTAL FUELS AND OF OXIDANT IN TOTAL OXIDANTS









               THERMODYNAMIC EQUILIBRIUM PROPERTIES AT ASSIGNED

                           TEMPERATURE AND PRESSURE

 CASE =                

             REACTANT                    WT FRACTION      ENERGY      TEMP
                                          (SEE NOTE)     KJ/KG-MOL      K  
 FUEL        H2                           1.0000000         0.000      0.000
 OXIDANT     H2                           1.0000000         0.000      0.000

 O/F=    1.00000  %FUEL= 50.000000  R,EQ.RATIO= 0.000000  PHI,EQ.RATIO=-1.000000

 THERMODYNAMIC PROPERTIES

 P, BAR            25.000   25.000   25.000   25.000   25.000   25.000   25.000   25.000
 T, K             7500.00  7550.00  7600.00  7650.00  7700.00  7750.00  7800.00  7850.00
 RHO, KG/CU M    4.0980-2 4.0682-2 4.0389-2 4.0102-2 3.9820-2 3.9543-2 3.9270-2 3.9002-2
 H, KJ/KG        358386.4 359714.3 361025.4 362320.8 363601.4 364868.4 366122.4 367364.3
 U, KJ/KG        297380.5 298261.7 299127.8 299979.8 300818.7 301645.3 302460.3 303264.6
 G, KJ/KG       -789356.1-797012.2-804677.0-812350.3-820032.1-827722.1-835420.3-843126.5
 S, KJ/(KG)(K)   153.0323 153.2088 153.3819 153.5518 153.7186 153.8826 154.0439 154.2026

 M, (1/n)           1.022    1.022    1.021    1.020    1.020    1.019    1.019    1.018
 (dLV/dLP)t      -1.01354 -1.01293 -1.01236 -1.01181 -1.01130 -1.01081 -1.01035 -1.00991
 (dLV/dLT)p        1.1007   1.0956   1.0907   1.0861   1.0819   1.0778   1.0740   1.0704
 Cp, KJ/(KG)(K)   26.7337  26.3862  26.0614  25.7574  25.4729  25.2066  24.9570  24.7231
 GAMMAs            1.5506   1.5560   1.5611   1.5660   1.5707   1.5752   1.5795   1.5836
 SON VEL,M/SEC     9726.2   9778.5   9829.9   9880.5   9930.3   9979.4  10027.6  10075.1

 TRANSPORT PROPERTIES (GASES ONLY)
   CONDUCTIVITY IN UNITS OF MILLIWATTS/(CM)(K)

 VISC,MILLIPOISE  0.80271  0.80679  0.81092  0.81510  0.81932  0.82358  0.82789  0.83223

  WITH EQUILIBRIUM REACTIONS

 Cp, KJ/(KG)(K)   26.7337  26.3862  26.0614  25.7574  25.4729  25.2066  24.9570  24.7231
 CONDUCTIVITY     33.4357  33.1115  32.8163  32.5482  32.3055  32.0865  31.8895  31.7131
 PRANDTL NUMBER    0.6418   0.6429   0.6440   0.6450   0.6460   0.6470   0.6479   0.6488

  WITH FROZEN REACTIONS

 Cp, KJ/(KG)(K)   20.6390  20.6388  20.6386  20.6384  20.6381  20.6377  20.6373  20.6368
 CONDUCTIVITY     24.5408  24.6778  24.8158  24.9548  25.0947  25.2354  25.3770  25.5193
 PRANDTL NUMBER    0.6751   0.6747   0.6744   0.6741   0.6738   0.6735   0.6733   0.6730

 MASS FRACTIONS

 *H               0.97214  0.97343  0.97464  0.97579  0.97687  0.97789  0.97886  0.97977
 *H2              0.02786  0.02657  0.02536  0.02421  0.02313  0.02211  0.02114  0.02023

  * THERMODYNAMIC PROPERTIES FITTED TO 20000.K

 NOTE. WEIGHT FRACTION OF FUEL IN TOTAL FUELS AND OF OXIDANT IN TOTAL OXIDANTS









               THERMODYNAMIC EQUILIBRIUM PROPERTIES AT ASSIGNED

                           TEMPERATURE AND PRESSURE

 CASE =                

             REACTANT                    WT FRACTION      ENERGY      TEMP
                                          (SEE NOTE)     KJ/KG-MOL      K  
 FUEL        H2                           1.0000000         0.000      0.000
 OXIDANT     H2                           1.0000000         0.000      0.000

 O/F=    1.00000  %FUEL= 50.000000  R,EQ.RATIO= 0.000000  PHI,EQ.RATIO=-1.000000

 THERMODYNAMIC PROPERTIES

 P, BAR            25.000   25.000   25.000   25.000   25.000   25.000   25.000   25.000
 T, K             7900.00  7950.00  8000.00  8050.00  8100.00  8150.00  8200.00  8250.00
 RHO, KG/CU M    3.8738-2 3.8478-2 3.8223-2 3.7972-2 3.7724-2 3.7480-2 3.7240-2 3.7003-2
 H, KJ/KG        368594.9 369814.9 371024.9 372225.6 373417.5 374601.1 375776.9 376945.5
 U, KJ/KG        304058.8 304843.5 305619.3 306386.8 307146.5 307898.8 308644.3 309383.2
 G, KJ/KG       -850840.5-858562.3-866291.8-874028.8-881773.2-889524.9-897283.9-905050.0
 S, KJ/(KG)(K)   154.3589 154.5129 154.6646 154.8142 154.9618 155.1075 155.2513 155.3934

 M, (1/n)           1.018    1.017    1.017    1.017    1.016    1.016    1.016    1.015
 (dLV/dLP)t      -1.00950 -1.00910 -1.00873 -1.00838 -1.00804 -1.00772 -1.00742 -1.00713
 (dLV/dLT)p        1.0671   1.0639   1.0609   1.0580   1.0554   1.0528   1.0504   1.0482
 Cp, KJ/(KG)(K)   24.5038  24.2980  24.1049  23.9235  23.7531  23.5930  23.4423  23.3006
 GAMMAs            1.5875   1.5913   1.5949   1.5983   1.6015   1.6046   1.6076   1.6104
 SON VEL,M/SEC    10121.9  10168.0  10213.4  10258.1  10302.2  10345.6  10388.5  10430.8

 TRANSPORT PROPERTIES (GASES ONLY)
   CONDUCTIVITY IN UNITS OF MILLIWATTS/(CM)(K)

 VISC,MILLIPOISE  0.83661  0.84102  0.84546  0.84993  0.85443  0.85896  0.86351  0.86809

  WITH EQUILIBRIUM REACTIONS

 Cp, KJ/(KG)(K)   24.5038  24.2980  24.1049  23.9235  23.7531  23.5930  23.4423  23.3006
 CONDUCTIVITY     31.5561  31.4171  31.2950  31.1886  31.0971  31.0194  30.9546  30.9020
 PRANDTL NUMBER    0.6496   0.6504   0.6512   0.6519   0.6526   0.6533   0.6539   0.6546

  WITH FROZEN REACTIONS

 Cp, KJ/(KG)(K)   20.6363  20.6358  20.6352  20.6346  20.6340  20.6333  20.6327  20.6320
 CONDUCTIVITY     25.6623  25.8060  25.9503  26.0953  26.2408  26.3869  26.5336  26.6807
 PRANDTL NUMBER    0.6728   0.6725   0.6723   0.6721   0.6719   0.6717   0.6715   0.6713

 MASS FRACTIONS

 *H               0.98063  0.98145  0.98223  0.98296  0.98366  0.98432  0.98494  0.98554
 *H2              0.01937  0.01855  0.01777  0.01704  0.01634  0.01568  0.01506  0.01446

  * THERMODYNAMIC PROPERTIES FITTED TO 20000.K

 NOTE. WEIGHT FRACTION OF FUEL IN TOTAL FUELS AND OF OXIDANT IN TOTAL OXIDANTS









               THERMODYNAMIC EQUILIBRIUM PROPERTIES AT ASSIGNED

                           TEMPERATURE AND PRESSURE

 CASE =                

             REACTANT                    WT FRACTION      ENERGY      TEMP
                                          (SEE NOTE)     KJ/KG-MOL      K  
 FUEL        H2                           1.0000000         0.000      0.000
 OXIDANT     H2                           1.0000000         0.000      0.000

 O/F=    1.00000  %FUEL= 50.000000  R,EQ.RATIO= 0.000000  PHI,EQ.RATIO=-1.000000

 THERMODYNAMIC PROPERTIES

 P, BAR            25.000   25.000   25.000   25.000   30.000   30.000   30.000   30.000
 T, K             8300.00  8350.00  8400.00  8450.00  7500.00  7550.00  7600.00  7650.00
 RHO, KG/CU M    3.6770-2 3.6539-2 3.6313-2 3.6089-2 4.9308-2 4.8944-2 4.8586-2 4.8236-2
 H, KJ/KG        378107.1 379262.3 380411.4 381554.8 357167.4 358548.9 359910.8 361254.3
 U, KJ/KG        310116.1 310843.2 311564.9 312281.5 296325.4 297254.0 298165.0 299059.6
 G, KJ/KG       -912823.2-920603.4-928390.4-936184.3-778248.0-785822.0-793405.1-800997.2
 S, KJ/(KG)(K)   155.5338 155.6725 155.8097 155.9455 151.3887 151.5723 151.7521 151.9283

 M, (1/n)           1.015    1.015    1.014    1.014    1.025    1.024    1.023    1.023
 (dLV/dLP)t      -1.00685 -1.00659 -1.00634 -1.00610 -1.01603 -1.01532 -1.01464 -1.01401
 (dLV/dLT)p        1.0461   1.0440   1.0421   1.0403   1.1192   1.1132   1.1075   1.1021
 Cp, KJ/(KG)(K)   23.1672  23.0416  22.9232  22.8116  27.8347  27.4295  27.0501  26.6947
 GAMMAs            1.6131   1.6156   1.6180   1.6203   1.5362   1.5419   1.5474   1.5527
 SON VEL,M/SEC    10472.5  10513.7  10554.4  10594.5   9667.8   9721.7   9774.7   9826.9

 TRANSPORT PROPERTIES (GASES ONLY)
   CONDUCTIVITY IN UNITS OF MILLIWATTS/(CM)(K)

 VISC,MILLIPOISE  0.87269  0.87731  0.88196  0.88662  0.80690  0.81083  0.81481  0.81884

  WITH EQUILIBRIUM REACTIONS

 Cp, KJ/(KG)(K)   23.1672  23.0416  22.9232  22.8116  27.8347  27.4295  27.0501  26.6947
 CONDUCTIVITY     30.8608  30.8304  30.8099  30.7989  35.1458  34.7400  34.3677  34.0265
 PRANDTL NUMBER    0.6551   0.6557   0.6562   0.6567   0.6391   0.6402   0.6413   0.6424

  WITH FROZEN REACTIONS

 Cp, KJ/(KG)(K)   20.6313  20.6306  20.6299  20.6292  20.6400  20.6397  20.6394  20.6390
 CONDUCTIVITY     26.8282  26.9763  27.1247  27.2735  24.6172  24.7511  24.8863  25.0225
 PRANDTL NUMBER    0.6711   0.6709   0.6708   0.6706   0.6765   0.6761   0.6758   0.6754

 MASS FRACTIONS

 *H               0.98610  0.98664  0.98715  0.98764  0.96685  0.96836  0.96980  0.97115
 *H2              0.01390  0.01336  0.01285  0.01236  0.03315  0.03164  0.03020  0.02885

  * THERMODYNAMIC PROPERTIES FITTED TO 20000.K

 NOTE. WEIGHT FRACTION OF FUEL IN TOTAL FUELS AND OF OXIDANT IN TOTAL OXIDANTS









               THERMODYNAMIC EQUILIBRIUM PROPERTIES AT ASSIGNED

                           TEMPERATURE AND PRESSURE

 CASE =                

             REACTANT                    WT FRACTION      ENERGY      TEMP
                                          (SEE NOTE)     KJ/KG-MOL      K  
 FUEL        H2                           1.0000000         0.000      0.000
 OXIDANT     H2                           1.0000000         0.000      0.000

 O/F=    1.00000  %FUEL= 50.000000  R,EQ.RATIO= 0.000000  PHI,EQ.RATIO=-1.000000

 THERMODYNAMIC PROPERTIES

 P, BAR            30.000   30.000   30.000   30.000   30.000   30.000   30.000   30.000
 T, K             7700.00  7750.00  7800.00  7850.00  7900.00  7950.00  8000.00  8050.00
 RHO, KG/CU M    4.7891-2 4.7553-2 4.7221-2 4.6894-2 4.6574-2 4.6258-2 4.5947-2 4.5642-2
 H, KJ/KG        362580.7 363890.9 365185.9 366466.8 367734.4 368989.6 370232.9 371465.3
 U, KJ/KG        299938.8 300803.6 301654.8 302493.4 303320.2 304135.8 304940.9 305736.2
 G, KJ/KG       -808597.9-816207.2-823824.9-831450.9-839085.0-846727.1-854377.0-862034.6
 S, KJ/(KG)(K)   152.1011 152.2707 152.4373 152.6010 152.7620 152.9203 153.0762 153.2298

 M, (1/n)           1.022    1.021    1.021    1.020    1.020    1.019    1.019    1.018
 (dLV/dLP)t      -1.01340 -1.01283 -1.01229 -1.01178 -1.01129 -1.01082 -1.01038 -1.00997
 (dLV/dLT)p        1.0971   1.0924   1.0879   1.0837   1.0797   1.0759   1.0724   1.0691
 Cp, KJ/(KG)(K)   26.3617  26.0496  25.7568  25.4822  25.2244  24.9824  24.7551  24.5414
 GAMMAs            1.5577   1.5626   1.5673   1.5718   1.5761   1.5803   1.5842   1.5880
 SON VEL,M/SEC     9878.2   9928.8   9978.6  10027.7  10076.0  10123.5  10170.4  10216.5

 TRANSPORT PROPERTIES (GASES ONLY)
   CONDUCTIVITY IN UNITS OF MILLIWATTS/(CM)(K)

 VISC,MILLIPOISE  0.82293  0.82706  0.83124  0.83547  0.83973  0.84403  0.84837  0.85274

  WITH EQUILIBRIUM REACTIONS

 Cp, KJ/(KG)(K)   26.3617  26.0496  25.7568  25.4822  25.2244  24.9824  24.7551  24.5414
 CONDUCTIVITY     33.7146  33.4299  33.1709  32.9358  32.7231  32.5313  32.3593  32.2056
 PRANDTL NUMBER    0.6435   0.6445   0.6455   0.6464   0.6473   0.6482   0.6490   0.6498

  WITH FROZEN REACTIONS

 Cp, KJ/(KG)(K)   20.6386  20.6381  20.6376  20.6370  20.6364  20.6358  20.6351  20.6344
 CONDUCTIVITY     25.1597  25.2979  25.4371  25.5771  25.7179  25.8595  26.0019  26.1449
 PRANDTL NUMBER    0.6751   0.6747   0.6744   0.6741   0.6738   0.6735   0.6733   0.6730

 MASS FRACTIONS

 *H               0.97243  0.97364  0.97479  0.97587  0.97689  0.97786  0.97878  0.97965
 *H2              0.02757  0.02636  0.02521  0.02413  0.02311  0.02214  0.02122  0.02035

  * THERMODYNAMIC PROPERTIES FITTED TO 20000.K

 NOTE. WEIGHT FRACTION OF FUEL IN TOTAL FUELS AND OF OXIDANT IN TOTAL OXIDANTS









               THERMODYNAMIC EQUILIBRIUM PROPERTIES AT ASSIGNED

                           TEMPERATURE AND PRESSURE

 CASE =                

             REACTANT                    WT FRACTION      ENERGY      TEMP
                                          (SEE NOTE)     KJ/KG-MOL      K  
 FUEL        H2                           1.0000000         0.000      0.000
 OXIDANT     H2                           1.0000000         0.000      0.000

 O/F=    1.00000  %FUEL= 50.000000  R,EQ.RATIO= 0.000000  PHI,EQ.RATIO=-1.000000

 THERMODYNAMIC PROPERTIES

 P, BAR            30.000   30.000   30.000   30.000   30.000   30.000   30.000   30.000
 T, K             8100.00  8150.00  8200.00  8250.00  8300.00  8350.00  8400.00  8450.00
 RHO, KG/CU M    4.5341-2 4.5045-2 4.4754-2 4.4467-2 4.4184-2 4.3905-2 4.3630-2 4.3359-2
 H, KJ/KG        372687.3 373899.5 375102.6 376297.1 377483.4 378662.1 379833.6 380998.3
 U, KJ/KG        306522.4 307299.8 308069.1 308830.7 309585.2 310332.8 311074.0 311809.2
 G, KJ/KG       -869699.9-877372.7-885052.9-892740.4-900435.2-908137.0-915845.9-923561.8
 S, KJ/(KG)(K)   153.3811 153.5303 153.6775 153.8227 153.9661 154.1077 154.2476 154.3858

 M, (1/n)           1.018    1.017    1.017    1.017    1.016    1.016    1.016    1.015
 (dLV/dLP)t      -1.00957 -1.00919 -1.00883 -1.00849 -1.00817 -1.00786 -1.00756 -1.00728
 (dLV/dLT)p        1.0659   1.0629   1.0601   1.0574   1.0549   1.0525   1.0502   1.0481
 Cp, KJ/(KG)(K)   24.3405  24.1516  23.9738  23.8064  23.6488  23.5002  23.3602  23.2281
 GAMMAs            1.5916   1.5951   1.5984   1.6015   1.6045   1.6074   1.6101   1.6127
 SON VEL,M/SEC    10262.0  10306.9  10351.1  10394.7  10437.7  10480.1  10522.0  10563.3

 TRANSPORT PROPERTIES (GASES ONLY)
   CONDUCTIVITY IN UNITS OF MILLIWATTS/(CM)(K)

 VISC,MILLIPOISE  0.85715  0.86159  0.86605  0.87055  0.87507  0.87961  0.88418  0.88877

  WITH EQUILIBRIUM REACTIONS

 Cp, KJ/(KG)(K)   24.3405  24.1516  23.9738  23.8064  23.6488  23.5002  23.3602  23.2281
 CONDUCTIVITY     32.0691  31.9489  31.8438  31.7530  31.6755  31.6105  31.5573  31.5152
 PRANDTL NUMBER    0.6506   0.6513   0.6520   0.6527   0.6533   0.6539   0.6545   0.6551

  WITH FROZEN REACTIONS

 Cp, KJ/(KG)(K)   20.6337  20.6329  20.6322  20.6314  20.6307  20.6299  20.6292  20.6285
 CONDUCTIVITY     26.2887  26.4330  26.5780  26.7235  26.8696  27.0161  27.1632  27.3107
 PRANDTL NUMBER    0.6728   0.6725   0.6723   0.6721   0.6719   0.6717   0.6715   0.6713

 MASS FRACTIONS

 *H               0.98048  0.98127  0.98201  0.98272  0.98339  0.98403  0.98464  0.98522
 *H2              0.01952  0.01873  0.01799  0.01728  0.01661  0.01597  0.01536  0.01478

  * THERMODYNAMIC PROPERTIES FITTED TO 20000.K

 NOTE. WEIGHT FRACTION OF FUEL IN TOTAL FUELS AND OF OXIDANT IN TOTAL OXIDANTS









               THERMODYNAMIC EQUILIBRIUM PROPERTIES AT ASSIGNED

                           TEMPERATURE AND PRESSURE

 CASE =                

             REACTANT                    WT FRACTION      ENERGY      TEMP
                                          (SEE NOTE)     KJ/KG-MOL      K  
 FUEL        H2                           1.0000000         0.000      0.000
 OXIDANT     H2                           1.0000000         0.000      0.000

 O/F=    1.00000  %FUEL= 50.000000  R,EQ.RATIO= 0.000000  PHI,EQ.RATIO=-1.000000

 THERMODYNAMIC PROPERTIES

 P, BAR            40.000   40.000   40.000   40.000   40.000   40.000   40.000   40.000
 T, K             7500.00  7550.00  7600.00  7650.00  7700.00  7750.00  7800.00  7850.00
 RHO, KG/CU M    6.6092-2 6.5588-2 6.5095-2 6.4612-2 6.4138-2 6.3673-2 6.3217-2 6.2769-2
 H, KJ/KG        354788.2 356271.8 357730.7 359166.3 360580.2 361973.5 363347.6 364703.6
 U, KJ/KG        294266.0 295285.1 296281.9 297257.9 298214.4 299152.6 300073.6 300978.3
 G, KJ/KG       -760788.9-768231.0-775682.9-783144.3-790615.0-798094.8-805583.5-813081.0
 S, KJ/(KG)(K)   148.7436 148.9408 149.1334 149.3216 149.5059 149.6862 149.8630 150.0363

 M, (1/n)           1.030    1.029    1.028    1.027    1.027    1.026    1.025    1.024
 (dLV/dLP)t      -1.02080 -1.01990 -1.01905 -1.01824 -1.01747 -1.01674 -1.01605 -1.01539
 (dLV/dLT)p        1.1547   1.1471   1.1398   1.1330   1.1266   1.1205   1.1148   1.1094
 Cp, KJ/(KG)(K)   29.9305  29.4198  28.9404  28.4903  28.0676  27.6705  27.2973  26.9466
 GAMMAs            1.5122   1.5183   1.5242   1.5300   1.5356   1.5410   1.5462   1.5513
 SON VEL,M/SEC     9566.6   9622.7   9677.9   9732.4   9786.1   9839.0   9891.2   9942.6

 TRANSPORT PROPERTIES (GASES ONLY)
   CONDUCTIVITY IN UNITS OF MILLIWATTS/(CM)(K)

 VISC,MILLIPOISE  0.81504  0.81867  0.82237  0.82614  0.82997  0.83386  0.83780  0.84180

  WITH EQUILIBRIUM REACTIONS

 Cp, KJ/(KG)(K)   29.9305  29.4198  28.9404  28.4903  28.0676  27.6705  27.2973  26.9466
 CONDUCTIVITY     38.4308  37.8741  37.3583  36.8809  36.4395  36.0320  35.6562  35.3102
 PRANDTL NUMBER    0.6348   0.6359   0.6371   0.6382   0.6393   0.6404   0.6414   0.6424

  WITH FROZEN REACTIONS

 Cp, KJ/(KG)(K)   20.6421  20.6415  20.6409  20.6402  20.6396  20.6388  20.6381  20.6373
 CONDUCTIVITY     24.7664  24.8945  25.0241  25.1550  25.2872  25.4205  25.5551  25.6907
 PRANDTL NUMBER    0.6793   0.6788   0.6783   0.6779   0.6774   0.6770   0.6766   0.6762

 MASS FRACTIONS

 *H               0.95651  0.95847  0.96032  0.96208  0.96374  0.96531  0.96679  0.96820
 *H2              0.04349  0.04153  0.03968  0.03792  0.03626  0.03469  0.03321  0.03180

  * THERMODYNAMIC PROPERTIES FITTED TO 20000.K

 NOTE. WEIGHT FRACTION OF FUEL IN TOTAL FUELS AND OF OXIDANT IN TOTAL OXIDANTS









               THERMODYNAMIC EQUILIBRIUM PROPERTIES AT ASSIGNED

                           TEMPERATURE AND PRESSURE

 CASE =                

             REACTANT                    WT FRACTION      ENERGY      TEMP
                                          (SEE NOTE)     KJ/KG-MOL      K  
 FUEL        H2                           1.0000000         0.000      0.000
 OXIDANT     H2                           1.0000000         0.000      0.000

 O/F=    1.00000  %FUEL= 50.000000  R,EQ.RATIO= 0.000000  PHI,EQ.RATIO=-1.000000

 THERMODYNAMIC PROPERTIES

 P, BAR            40.000   40.000   40.000   40.000   40.000   40.000   40.000   40.000
 T, K             7900.00  7950.00  8000.00  8050.00  8100.00  8150.00  8200.00  8250.00
 RHO, KG/CU M    6.2330-2 6.1898-2 6.1474-2 6.1057-2 6.0647-2 6.0243-2 5.9846-2 5.9456-2
 H, KJ/KG        366042.6 367365.6 368673.6 369967.4 371247.9 372515.8 373771.9 375016.8
 U, KJ/KG        301868.0 302743.3 303605.2 304454.5 305291.9 306118.2 306934.0 307739.8
 G, KJ/KG       -820587.1-828101.6-835624.4-843155.3-850694.2-858240.9-865795.5-873357.6
 S, KJ/(KG)(K)   150.2063 150.3732 150.5372 150.6985 150.8570 151.0131 151.1667 151.3181

 M, (1/n)           1.024    1.023    1.022    1.022    1.021    1.021    1.020    1.020
 (dLV/dLP)t      -1.01477 -1.01417 -1.01361 -1.01307 -1.01256 -1.01207 -1.01160 -1.01116
 (dLV/dLT)p        1.1043   1.0994   1.0949   1.0905   1.0865   1.0826   1.0789   1.0755
 Cp, KJ/(KG)(K)   26.6168  26.3066  26.0148  25.7401  25.4815  25.2380  25.0085  24.7922
 GAMMAs            1.5562   1.5609   1.5654   1.5697   1.5739   1.5779   1.5818   1.5855
 SON VEL,M/SEC     9993.3  10043.2  10092.4  10140.9  10188.7  10235.8  10282.3  10328.0

 TRANSPORT PROPERTIES (GASES ONLY)
   CONDUCTIVITY IN UNITS OF MILLIWATTS/(CM)(K)

 VISC,MILLIPOISE  0.84584  0.84994  0.85408  0.85826  0.86248  0.86675  0.87104  0.87538

  WITH EQUILIBRIUM REACTIONS

 Cp, KJ/(KG)(K)   26.6168  26.3066  26.0148  25.7401  25.4815  25.2380  25.0085  24.7922
 CONDUCTIVITY     34.9922  34.7005  34.4335  34.1897  33.9676  33.7660  33.5836  33.4193
 PRANDTL NUMBER    0.6434   0.6443   0.6453   0.6462   0.6470   0.6478   0.6486   0.6494

  WITH FROZEN REACTIONS

 Cp, KJ/(KG)(K)   20.6365  20.6357  20.6348  20.6339  20.6331  20.6322  20.6313  20.6304
 CONDUCTIVITY     25.8273  25.9649  26.1034  26.2427  26.3829  26.5239  26.6657  26.8081
 PRANDTL NUMBER    0.6758   0.6755   0.6752   0.6748   0.6745   0.6742   0.6739   0.6737

 MASS FRACTIONS

 *H               0.96954  0.97080  0.97200  0.97314  0.97423  0.97525  0.97623  0.97716
 *H2              0.03046  0.02920  0.02800  0.02686  0.02577  0.02475  0.02377  0.02284

  * THERMODYNAMIC PROPERTIES FITTED TO 20000.K

 NOTE. WEIGHT FRACTION OF FUEL IN TOTAL FUELS AND OF OXIDANT IN TOTAL OXIDANTS









               THERMODYNAMIC EQUILIBRIUM PROPERTIES AT ASSIGNED

                           TEMPERATURE AND PRESSURE

 CASE =                

             REACTANT                    WT FRACTION      ENERGY      TEMP
                                          (SEE NOTE)     KJ/KG-MOL      K  
 FUEL        H2                           1.0000000         0.000      0.000
 OXIDANT     H2                           1.0000000         0.000      0.000

 O/F=    1.00000  %FUEL= 50.000000  R,EQ.RATIO= 0.000000  PHI,EQ.RATIO=-1.000000

 THERMODYNAMIC PROPERTIES

 P, BAR            40.000   40.000   40.000   40.000   50.000   50.000   50.000   50.000
 T, K             8300.00  8350.00  8400.00  8450.00  7500.00  7550.00  7600.00  7650.00
 RHO, KG/CU M    5.9071-2 5.8693-2 5.8320-2 5.7952-2 8.3039-2 8.2389-2 8.1752-2 8.1129-2
 H, KJ/KG        376251.3 377475.9 378691.1 379897.5 352483.6 354063.1 355613.2 357135.8
 U, KJ/KG        308536.3 309324.1 310103.5 310875.1 292271.3 293375.2 294452.9 295505.8
 G, KJ/KG       -880927.2-888504.3-896088.6-903680.2-747317.2-754654.5-762002.1-769359.9
 S, KJ/(KG)(K)   151.4673 151.6144 151.7595 151.9027 146.6401 146.8500 147.0546 147.2543

 M, (1/n)           1.019    1.019    1.018    1.018    1.036    1.034    1.033    1.032
 (dLV/dLP)t      -1.01074 -1.01034 -1.00996 -1.00959 -1.02532 -1.02426 -1.02325 -1.02228
 (dLV/dLT)p        1.0722   1.0691   1.0661   1.0633   1.1884   1.1792   1.1706   1.1625
 Cp, KJ/(KG)(K)   24.5882  24.3958  24.2143  24.0429  31.8937  31.2897  30.7214  30.1865
 GAMMAs            1.5891   1.5925   1.5957   1.5988   1.4929   1.4992   1.5054   1.5114
 SON VEL,M/SEC    10373.2  10417.7  10461.7  10505.0   9481.1   9538.6   9595.3   9651.4

 TRANSPORT PROPERTIES (GASES ONLY)
   CONDUCTIVITY IN UNITS OF MILLIWATTS/(CM)(K)

 VISC,MILLIPOISE  0.87974  0.88414  0.88857  0.89302  0.82286  0.82622  0.82967  0.83318

  WITH EQUILIBRIUM REACTIONS

 Cp, KJ/(KG)(K)   24.5882  24.3958  24.2143  24.0429  31.8937  31.2897  30.7214  30.1865
 CONDUCTIVITY     33.2720  33.1407  33.0245  32.9223  41.5457  40.8531  40.2074  39.6061
 PRANDTL NUMBER    0.6501   0.6508   0.6515   0.6522   0.6317   0.6328   0.6339   0.6350

  WITH FROZEN REACTIONS

 Cp, KJ/(KG)(K)   20.6295  20.6286  20.6278  20.6269  20.6440  20.6432  20.6423  20.6414
 CONDUCTIVITY     26.9512  27.0950  27.2393  27.3842  24.9109  25.0336  25.1580  25.2839
 PRANDTL NUMBER    0.6734   0.6731   0.6729   0.6727   0.6819   0.6813   0.6807   0.6802

 MASS FRACTIONS

 *H               0.97804  0.97888  0.97968  0.98044  0.94649  0.94887  0.95112  0.95325
 *H2              0.02196  0.02112  0.02032  0.01956  0.05351  0.05113  0.04888  0.04675

  * THERMODYNAMIC PROPERTIES FITTED TO 20000.K

 NOTE. WEIGHT FRACTION OF FUEL IN TOTAL FUELS AND OF OXIDANT IN TOTAL OXIDANTS









               THERMODYNAMIC EQUILIBRIUM PROPERTIES AT ASSIGNED

                           TEMPERATURE AND PRESSURE

 CASE =                

             REACTANT                    WT FRACTION      ENERGY      TEMP
                                          (SEE NOTE)     KJ/KG-MOL      K  
 FUEL        H2                           1.0000000         0.000      0.000
 OXIDANT     H2                           1.0000000         0.000      0.000

 O/F=    1.00000  %FUEL= 50.000000  R,EQ.RATIO= 0.000000  PHI,EQ.RATIO=-1.000000

 THERMODYNAMIC PROPERTIES

 P, BAR            50.000   50.000   50.000   50.000   50.000   50.000   50.000   50.000
 T, K             7700.00  7750.00  7800.00  7850.00  7900.00  7950.00  8000.00  8050.00
 RHO, KG/CU M    8.0519-2 7.9922-2 7.9336-2 7.8761-2 7.8198-2 7.7645-2 7.7102-2 7.6569-2
 H, KJ/KG        358632.4 360104.5 361553.7 362981.3 364388.4 365776.3 367146.2 368498.9
 U, KJ/KG        296535.5 297543.3 298530.5 299498.4 300448.0 301380.5 302296.9 303198.0
 G, KJ/KG       -776727.5-784104.7-791491.4-798887.3-806292.2-813706.0-821128.4-828559.4
 S, KJ/(KG)(K)   147.4493 147.6399 147.8263 148.0087 148.1874 148.3626 148.5343 148.7029

 M, (1/n)           1.031    1.030    1.029    1.028    1.027    1.026    1.026    1.025
 (dLV/dLP)t      -1.02136 -1.02049 -1.01966 -1.01887 -1.01812 -1.01740 -1.01672 -1.01607
 (dLV/dLT)p        1.1548   1.1475   1.1406   1.1341   1.1279   1.1221   1.1166   1.1113
 Cp, KJ/(KG)(K)   29.6830  29.2091  28.7628  28.3427  27.9469  27.5740  27.2227  26.8915
 GAMMAs            1.5173   1.5230   1.5286   1.5340   1.5392   1.5443   1.5492   1.5540
 SON VEL,M/SEC     9706.7   9761.3   9815.1   9868.2   9920.6   9972.3  10023.3  10073.6

 TRANSPORT PROPERTIES (GASES ONLY)
   CONDUCTIVITY IN UNITS OF MILLIWATTS/(CM)(K)

 VISC,MILLIPOISE  0.83678  0.84043  0.84416  0.84794  0.85179  0.85569  0.85964  0.86364

  WITH EQUILIBRIUM REACTIONS

 Cp, KJ/(KG)(K)   29.6830  29.2091  28.7628  28.3427  27.9469  27.5740  27.2227  26.8915
 CONDUCTIVITY     39.0464  38.5260  38.0427  37.5942  37.1785  36.7937  36.4380  36.1097
 PRANDTL NUMBER    0.6361   0.6372   0.6382   0.6393   0.6403   0.6413   0.6422   0.6432

  WITH FROZEN REACTIONS

 Cp, KJ/(KG)(K)   20.6405  20.6396  20.6386  20.6376  20.6366  20.6356  20.6346  20.6335
 CONDUCTIVITY     25.4113  25.5401  25.6702  25.8016  25.9342  26.0680  26.2028  26.3386
 PRANDTL NUMBER    0.6797   0.6792   0.6787   0.6782   0.6778   0.6774   0.6770   0.6766

 MASS FRACTIONS

 *H               0.95527  0.95718  0.95900  0.96072  0.96235  0.96390  0.96537  0.96676
 *H2              0.04473  0.04282  0.04100  0.03928  0.03765  0.03610  0.03463  0.03324

  * THERMODYNAMIC PROPERTIES FITTED TO 20000.K

 NOTE. WEIGHT FRACTION OF FUEL IN TOTAL FUELS AND OF OXIDANT IN TOTAL OXIDANTS









               THERMODYNAMIC EQUILIBRIUM PROPERTIES AT ASSIGNED

                           TEMPERATURE AND PRESSURE

 CASE =                

             REACTANT                    WT FRACTION      ENERGY      TEMP
                                          (SEE NOTE)     KJ/KG-MOL      K  
 FUEL        H2                           1.0000000         0.000      0.000
 OXIDANT     H2                           1.0000000         0.000      0.000

 O/F=    1.00000  %FUEL= 50.000000  R,EQ.RATIO= 0.000000  PHI,EQ.RATIO=-1.000000

 THERMODYNAMIC PROPERTIES

 P, BAR            50.000   50.000   50.000   50.000   50.000   50.000   50.000   50.000
 T, K             8100.00  8150.00  8200.00  8250.00  8300.00  8350.00  8400.00  8450.00
 RHO, KG/CU M    7.6045-2 7.5530-2 7.5024-2 7.4526-2 7.4036-2 7.3554-2 7.3080-2 7.2613-2
 H, KJ/KG        369835.6 371157.2 372464.4 373758.1 375039.1 376308.1 377565.7 378812.5
 U, KJ/KG        304084.8 304958.1 305818.7 306667.2 307504.5 308331.0 309147.5 309954.5
 G, KJ/KG       -835998.7-843446.2-850901.7-858365.2-865836.5-873315.5-880802.0-888296.0
 S, KJ/(KG)(K)   148.8684 149.0311 149.1910 149.3483 149.5031 149.6555 149.8057 149.9537

 M, (1/n)           1.024    1.024    1.023    1.022    1.022    1.021    1.021    1.020
 (dLV/dLP)t      -1.01545 -1.01486 -1.01429 -1.01376 -1.01324 -1.01276 -1.01229 -1.01184
 (dLV/dLT)p        1.1064   1.1017   1.0972   1.0930   1.0890   1.0852   1.0816   1.0782
 Cp, KJ/(KG)(K)   26.5792  26.2847  26.0069  25.7447  25.4972  25.2635  25.0427  24.8341
 GAMMAs            1.5586   1.5630   1.5673   1.5714   1.5754   1.5792   1.5828   1.5864
 SON VEL,M/SEC    10123.1  10172.0  10220.2  10267.7  10314.6  10360.9  10406.5  10451.5

 TRANSPORT PROPERTIES (GASES ONLY)
   CONDUCTIVITY IN UNITS OF MILLIWATTS/(CM)(K)

 VISC,MILLIPOISE  0.86769  0.87179  0.87593  0.88011  0.88433  0.88858  0.89287  0.89720

  WITH EQUILIBRIUM REACTIONS

 Cp, KJ/(KG)(K)   26.5792  26.2847  26.0069  25.7447  25.4972  25.2635  25.0427  24.8341
 CONDUCTIVITY     35.8072  35.5290  35.2737  35.0399  34.8264  34.6320  34.4556  34.2963
 PRANDTL NUMBER    0.6441   0.6450   0.6458   0.6466   0.6474   0.6482   0.6489   0.6497

  WITH FROZEN REACTIONS

 Cp, KJ/(KG)(K)   20.6325  20.6314  20.6304  20.6293  20.6283  20.6273  20.6263  20.6254
 CONDUCTIVITY     26.4755  26.6132  26.7518  26.8913  27.0316  27.1726  27.3143  27.4567
 PRANDTL NUMBER    0.6762   0.6758   0.6755   0.6752   0.6748   0.6745   0.6743   0.6740

 MASS FRACTIONS

 *H               0.96809  0.96935  0.97055  0.97169  0.97277  0.97380  0.97479  0.97572
 *H2              0.03191  0.03065  0.02945  0.02831  0.02723  0.02620  0.02521  0.02428

  * THERMODYNAMIC PROPERTIES FITTED TO 20000.K

 NOTE. WEIGHT FRACTION OF FUEL IN TOTAL FUELS AND OF OXIDANT IN TOTAL OXIDANTS









               THERMODYNAMIC EQUILIBRIUM PROPERTIES AT ASSIGNED

                           TEMPERATURE AND PRESSURE

 CASE =                

             REACTANT                    WT FRACTION      ENERGY      TEMP
                                          (SEE NOTE)     KJ/KG-MOL      K  
 FUEL        H2                           1.0000000         0.000      0.000
 OXIDANT     H2                           1.0000000         0.000      0.000

 O/F=    1.00000  %FUEL= 50.000000  R,EQ.RATIO= 0.000000  PHI,EQ.RATIO=-1.000000

 THERMODYNAMIC PROPERTIES

 P, BAR            62.500   62.500   62.500   62.500   62.500   62.500   62.500   62.500
 T, K             7500.00  7550.00  7600.00  7650.00  7700.00  7750.00  7800.00  7850.00
 RHO, KG/CU M    1.0445-1 1.0360-1 1.0278-1 1.0197-1 1.0118-1 1.0041-1 9.9652-2 9.8912-2
 H, KJ/KG        349702.3 351393.3 353050.0 354674.4 356268.3 357833.4 359371.3 360883.5
 U, KJ/KG        289863.8 291066.8 292238.9 293382.0 294497.8 295587.7 296653.3 297695.8
 G, KJ/KG       -733921.7-741151.5-748392.3-755644.0-762906.2-770178.7-777461.1-784753.4
 S, KJ/(KG)(K)   144.4832 144.7079 144.9266 145.1397 145.3473 145.5499 145.7477 145.9410

 M, (1/n)           1.042    1.041    1.039    1.038    1.036    1.035    1.034    1.033
 (dLV/dLP)t      -1.03065 -1.02940 -1.02821 -1.02707 -1.02599 -1.02496 -1.02397 -1.02303
 (dLV/dLT)p        1.2280   1.2172   1.2071   1.1974   1.1883   1.1796   1.1714   1.1636
 Cp, KJ/(KG)(K)   34.1766  33.4712  32.8054  32.1770  31.5840  31.0243  30.4961  29.9977
 GAMMAs            1.4736   1.4800   1.4862   1.4924   1.4985   1.5044   1.5102   1.5159
 SON VEL,M/SEC     9390.2   9448.8   9506.8   9564.2   9620.9   9676.9   9732.3   9786.9

 TRANSPORT PROPERTIES (GASES ONLY)
   CONDUCTIVITY IN UNITS OF MILLIWATTS/(CM)(K)

 VISC,MILLIPOISE  0.83220  0.83527  0.83842  0.84165  0.84497  0.84837  0.85184  0.85538

  WITH EQUILIBRIUM REACTIONS

 Cp, KJ/(KG)(K)   34.1766  33.4712  32.8054  32.1770  31.5840  31.0243  30.4961  29.9977
 CONDUCTIVITY     45.2173  44.3737  43.5829  42.8422  42.1489  41.5005  40.8945  40.3287
 PRANDTL NUMBER    0.6290   0.6300   0.6311   0.6321   0.6332   0.6342   0.6352   0.6363

  WITH FROZEN REACTIONS

 Cp, KJ/(KG)(K)   20.6464  20.6453  20.6441  20.6429  20.6417  20.6405  20.6392  20.6380
 CONDUCTIVITY     25.0854  25.2018  25.3201  25.4402  25.5620  25.6854  25.8104  25.9368
 PRANDTL NUMBER    0.6849   0.6842   0.6836   0.6829   0.6823   0.6817   0.6812   0.6806

 MASS FRACTIONS

 *H               0.93440  0.93727  0.93998  0.94255  0.94500  0.94731  0.94951  0.95160
 *H2              0.06560  0.06273  0.06002  0.05745  0.05500  0.05269  0.05049  0.04840

  * THERMODYNAMIC PROPERTIES FITTED TO 20000.K

 NOTE. WEIGHT FRACTION OF FUEL IN TOTAL FUELS AND OF OXIDANT IN TOTAL OXIDANTS









               THERMODYNAMIC EQUILIBRIUM PROPERTIES AT ASSIGNED

                           TEMPERATURE AND PRESSURE

 CASE =                

             REACTANT                    WT FRACTION      ENERGY      TEMP
                                          (SEE NOTE)     KJ/KG-MOL      K  
 FUEL        H2                           1.0000000         0.000      0.000
 OXIDANT     H2                           1.0000000         0.000      0.000

 O/F=    1.00000  %FUEL= 50.000000  R,EQ.RATIO= 0.000000  PHI,EQ.RATIO=-1.000000

 THERMODYNAMIC PROPERTIES

 P, BAR            62.500   62.500   62.500   62.500   62.500   62.500   62.500   62.500
 T, K             7900.00  7950.00  8000.00  8050.00  8100.00  8150.00  8200.00  8250.00
 RHO, KG/CU M    9.8186-2 9.7474-2 9.6777-2 9.6092-2 9.5420-2 9.4760-2 9.4112-2 9.3475-2
 H, KJ/KG        362371.5 363836.6 365280.2 366703.4 368107.3 369493.1 370861.7 372214.0
 U, KJ/KG        298716.8 299717.3 300698.5 301661.6 302607.5 303537.1 304451.5 305351.5
 G, KJ/KG       -792055.2-799366.3-806686.6-814015.8-821353.8-828700.5-836055.6-843418.9
 S, KJ/(KG)(K)   146.1300 146.3148 146.4958 146.6732 146.8471 147.0176 147.1850 147.3494

 M, (1/n)           1.032    1.031    1.030    1.029    1.028    1.027    1.027    1.026
 (dLV/dLP)t      -1.02213 -1.02128 -1.02046 -1.01968 -1.01894 -1.01823 -1.01755 -1.01690
 (dLV/dLT)p        1.1563   1.1493   1.1426   1.1364   1.1304   1.1247   1.1194   1.1143
 Cp, KJ/(KG)(K)   29.5271  29.0829  28.6635  28.2675  27.8935  27.5401  27.2062  26.8907
 GAMMAs            1.5214   1.5268   1.5320   1.5371   1.5420   1.5468   1.5515   1.5560
 SON VEL,M/SEC     9840.9   9894.2   9946.8   9998.8  10050.0  10100.6  10150.5  10199.8

 TRANSPORT PROPERTIES (GASES ONLY)
   CONDUCTIVITY IN UNITS OF MILLIWATTS/(CM)(K)

 VISC,MILLIPOISE  0.85899  0.86266  0.86639  0.87018  0.87403  0.87793  0.88188  0.88588

  WITH EQUILIBRIUM REACTIONS

 Cp, KJ/(KG)(K)   29.5271  29.0829  28.6635  28.2675  27.8935  27.5401  27.2062  26.8907
 CONDUCTIVITY     39.8007  39.3085  38.8502  38.4238  38.0276  37.6599  37.3190  37.0035
 PRANDTL NUMBER    0.6373   0.6382   0.6392   0.6402   0.6411   0.6420   0.6429   0.6438

  WITH FROZEN REACTIONS

 Cp, KJ/(KG)(K)   20.6367  20.6355  20.6342  20.6330  20.6317  20.6305  20.6293  20.6281
 CONDUCTIVITY     26.0646  26.1938  26.3242  26.4559  26.5887  26.7225  26.8575  26.9934
 PRANDTL NUMBER    0.6801   0.6796   0.6791   0.6787   0.6782   0.6778   0.6774   0.6770

 MASS FRACTIONS

 *H               0.95358  0.95547  0.95726  0.95896  0.96058  0.96211  0.96358  0.96497
 *H2              0.04642  0.04453  0.04274  0.04104  0.03942  0.03789  0.03642  0.03503

  * THERMODYNAMIC PROPERTIES FITTED TO 20000.K

 NOTE. WEIGHT FRACTION OF FUEL IN TOTAL FUELS AND OF OXIDANT IN TOTAL OXIDANTS









               THERMODYNAMIC EQUILIBRIUM PROPERTIES AT ASSIGNED

                           TEMPERATURE AND PRESSURE

 CASE =                

             REACTANT                    WT FRACTION      ENERGY      TEMP
                                          (SEE NOTE)     KJ/KG-MOL      K  
 FUEL        H2                           1.0000000         0.000      0.000
 OXIDANT     H2                           1.0000000         0.000      0.000

 O/F=    1.00000  %FUEL= 50.000000  R,EQ.RATIO= 0.000000  PHI,EQ.RATIO=-1.000000

 THERMODYNAMIC PROPERTIES

 P, BAR            62.500   62.500   62.500   62.500   80.000   80.000   80.000   80.000
 T, K             8300.00  8350.00  8400.00  8450.00  7500.00  7550.00  7600.00  7650.00
 RHO, KG/CU M    9.2849-2 9.2234-2 9.1629-2 9.1034-2 1.3482-1 1.3368-1 1.3258-1 1.3150-1
 H, KJ/KG        373551.0 374873.5 376182.3 377478.1 345981.5 347814.9 349608.3 351363.8
 U, KJ/KG        306237.8 307111.2 307972.4 308822.2 286643.2 287972.7 289266.1 290525.4
 G, KJ/KG       -850790.4-858170.0-865557.4-872952.6-719209.7-726317.1-733436.5-740567.5
 S, KJ/(KG)(K)   147.5110 147.6699 147.8262 147.9800 142.0255 142.2691 142.5059 142.7361

 M, (1/n)           1.025    1.025    1.024    1.023    1.051    1.049    1.047    1.045
 (dLV/dLP)t      -1.01628 -1.01569 -1.01513 -1.01459 -1.03754 -1.03608 -1.03468 -1.03334
 (dLV/dLT)p        1.1094   1.1048   1.1005   1.0963   1.2793   1.2666   1.2545   1.2431
 Cp, KJ/(KG)(K)   26.5924  26.3103  26.0435  25.7912  37.0846  36.2615  35.4815  34.7426
 GAMMAs            1.5603   1.5645   1.5685   1.5725   1.4526   1.4590   1.4652   1.4714
 SON VEL,M/SEC    10248.3  10296.3  10343.6  10390.3   9284.2   9343.9   9402.9   9461.5

 TRANSPORT PROPERTIES (GASES ONLY)
   CONDUCTIVITY IN UNITS OF MILLIWATTS/(CM)(K)

 VISC,MILLIPOISE  0.88992  0.89401  0.89814  0.90231  0.84456  0.84725  0.85004  0.85293

  WITH EQUILIBRIUM REACTIONS

 Cp, KJ/(KG)(K)   26.5924  26.3103  26.0435  25.7912  37.0846  36.2615  35.4815  34.7426
 CONDUCTIVITY     36.7121  36.4432  36.1958  35.9685  49.9790  48.9547  47.9889  47.0791
 PRANDTL NUMBER    0.6446   0.6454   0.6462   0.6470   0.6267   0.6276   0.6285   0.6294

  WITH FROZEN REACTIONS

 Cp, KJ/(KG)(K)   20.6269  20.6257  20.6246  20.6235  20.6496  20.6480  20.6464  20.6448
 CONDUCTIVITY     27.1302  27.2679  27.4065  27.5459  25.3188  25.4272  25.5377  25.6504
 PRANDTL NUMBER    0.6766   0.6762   0.6759   0.6756   0.6888   0.6880   0.6872   0.6865

 MASS FRACTIONS

 *H               0.96630  0.96757  0.96877  0.96992  0.91823  0.92171  0.92502  0.92817
 *H2              0.03370  0.03243  0.03123  0.03008  0.08177  0.07829  0.07498  0.07183

  * THERMODYNAMIC PROPERTIES FITTED TO 20000.K

 NOTE. WEIGHT FRACTION OF FUEL IN TOTAL FUELS AND OF OXIDANT IN TOTAL OXIDANTS









               THERMODYNAMIC EQUILIBRIUM PROPERTIES AT ASSIGNED

                           TEMPERATURE AND PRESSURE

 CASE =                

             REACTANT                    WT FRACTION      ENERGY      TEMP
                                          (SEE NOTE)     KJ/KG-MOL      K  
 FUEL        H2                           1.0000000         0.000      0.000
 OXIDANT     H2                           1.0000000         0.000      0.000

 O/F=    1.00000  %FUEL= 50.000000  R,EQ.RATIO= 0.000000  PHI,EQ.RATIO=-1.000000

 THERMODYNAMIC PROPERTIES

 P, BAR            80.000   80.000   80.000   80.000   80.000   80.000   80.000   80.000
 T, K             7700.00  7750.00  7800.00  7850.00  7900.00  7950.00  8000.00  8050.00
 RHO, KG/CU M    1.3044-1 1.2941-1 1.2840-1 1.2741-1 1.2645-1 1.2550-1 1.2458-1 1.2367-1
 H, KJ/KG        353083.2 354768.7 356421.8 358044.5 359638.2 361204.6 362745.2 364261.1
 U, KJ/KG        291752.4 292948.8 294116.2 295256.4 296370.6 297460.4 298527.0 299571.8
 G, KJ/KG       -747710.0-754863.5-762027.7-769202.5-776387.5-783582.5-790787.2-798001.5
 S, KJ/(KG)(K)   142.9602 143.1783 143.3910 143.5983 143.8007 143.9984 144.1915 144.3805

 M, (1/n)           1.044    1.042    1.041    1.040    1.038    1.037    1.036    1.035
 (dLV/dLP)t      -1.03205 -1.03083 -1.02965 -1.02853 -1.02745 -1.02642 -1.02544 -1.02449
 (dLV/dLT)p        1.2322   1.2219   1.2120   1.2027   1.1938   1.1854   1.1774   1.1697
 Cp, KJ/(KG)(K)   34.0428  33.3802  32.7528  32.1588  31.5966  31.0643  30.5605  30.0835
 GAMMAs            1.4775   1.4836   1.4895   1.4953   1.5010   1.5066   1.5121   1.5175
 SON VEL,M/SEC     9519.4   9576.7   9633.4   9689.6   9745.0   9799.9   9854.1   9907.7

 TRANSPORT PROPERTIES (GASES ONLY)
   CONDUCTIVITY IN UNITS OF MILLIWATTS/(CM)(K)

 VISC,MILLIPOISE  0.85590  0.85897  0.86212  0.86535  0.86866  0.87204  0.87549  0.87901

  WITH EQUILIBRIUM REACTIONS

 Cp, KJ/(KG)(K)   34.0428  33.3802  32.7528  32.1588  31.5966  31.0643  30.5605  30.0835
 CONDUCTIVITY     46.2224  45.4164  44.6586  43.9467  43.2781  42.6509  42.0629  41.5119
 PRANDTL NUMBER    0.6304   0.6313   0.6323   0.6332   0.6342   0.6351   0.6361   0.6370

  WITH FROZEN REACTIONS

 Cp, KJ/(KG)(K)   20.6433  20.6417  20.6401  20.6385  20.6369  20.6354  20.6338  20.6323
 CONDUCTIVITY     25.7650  25.8815  25.9997  26.1197  26.2414  26.3646  26.4893  26.6154
 PRANDTL NUMBER    0.6858   0.6851   0.6844   0.6838   0.6831   0.6825   0.6820   0.6814

 MASS FRACTIONS

 *H               0.93115  0.93399  0.93669  0.93926  0.94170  0.94402  0.94624  0.94834
 *H2              0.06885  0.06601  0.06331  0.06074  0.05830  0.05598  0.05376  0.05166

  * THERMODYNAMIC PROPERTIES FITTED TO 20000.K

 NOTE. WEIGHT FRACTION OF FUEL IN TOTAL FUELS AND OF OXIDANT IN TOTAL OXIDANTS









               THERMODYNAMIC EQUILIBRIUM PROPERTIES AT ASSIGNED

                           TEMPERATURE AND PRESSURE

 CASE =                

             REACTANT                    WT FRACTION      ENERGY      TEMP
                                          (SEE NOTE)     KJ/KG-MOL      K  
 FUEL        H2                           1.0000000         0.000      0.000
 OXIDANT     H2                           1.0000000         0.000      0.000

 O/F=    1.00000  %FUEL= 50.000000  R,EQ.RATIO= 0.000000  PHI,EQ.RATIO=-1.000000

 THERMODYNAMIC PROPERTIES

 P, BAR            80.000   80.000   80.000   80.000   80.000   80.000   80.000   80.000
 T, K             8100.00  8150.00  8200.00  8250.00  8300.00  8350.00  8400.00  8450.00
 RHO, KG/CU M    1.2278-1 1.2191-1 1.2105-1 1.2021-1 1.1938-1 1.1857-1 1.1778-1 1.1699-1
 H, KJ/KG        365753.9 367224.7 368674.7 370105.1 371516.7 372910.7 374287.9 375649.3
 U, KJ/KG        300595.8 301600.2 302586.1 303554.4 304506.1 305442.1 306363.3 307270.3
 G, KJ/KG       -805225.2-812458.0-819699.8-826950.3-834209.5-841477.1-848753.0-856037.1
 S, KJ/(KG)(K)   144.5653 144.7464 144.9237 145.0976 145.2682 145.4357 145.6001 145.7617

 M, (1/n)           1.034    1.033    1.032    1.031    1.030    1.029    1.028    1.027
 (dLV/dLP)t      -1.02359 -1.02273 -1.02191 -1.02112 -1.02036 -1.01964 -1.01895 -1.01829
 (dLV/dLT)p        1.1625   1.1556   1.1490   1.1428   1.1369   1.1312   1.1259   1.1208
 Cp, KJ/(KG)(K)   29.6320  29.2044  28.7996  28.4162  28.0531  27.7091  27.3832  27.0743
 GAMMAs            1.5227   1.5278   1.5327   1.5376   1.5423   1.5469   1.5513   1.5556
 SON VEL,M/SEC     9960.7  10013.0  10064.7  10115.7  10166.1  10215.9  10265.0  10313.5

 TRANSPORT PROPERTIES (GASES ONLY)
   CONDUCTIVITY IN UNITS OF MILLIWATTS/(CM)(K)

 VISC,MILLIPOISE  0.88260  0.88624  0.88995  0.89371  0.89753  0.90140  0.90531  0.90928

  WITH EQUILIBRIUM REACTIONS

 Cp, KJ/(KG)(K)   29.6320  29.2044  28.7996  28.4162  28.0531  27.7091  27.3832  27.0743
 CONDUCTIVITY     40.9962  40.5139  40.0632  39.6425  39.2501  38.8847  38.5447  38.2288
 PRANDTL NUMBER    0.6379   0.6388   0.6397   0.6406   0.6415   0.6423   0.6432   0.6440

  WITH FROZEN REACTIONS

 Cp, KJ/(KG)(K)   20.6307  20.6292  20.6278  20.6263  20.6249  20.6235  20.6222  20.6209
 CONDUCTIVITY     26.7428  26.8716  27.0016  27.1327  27.2650  27.3984  27.5327  27.6681
 PRANDTL NUMBER    0.6809   0.6804   0.6799   0.6794   0.6789   0.6785   0.6781   0.6777

 MASS FRACTIONS

 *H               0.95035  0.95226  0.95407  0.95581  0.95746  0.95904  0.96054  0.96198
 *H2              0.04965  0.04774  0.04593  0.04419  0.04254  0.04096  0.03946  0.03802

  * THERMODYNAMIC PROPERTIES FITTED TO 20000.K

 NOTE. WEIGHT FRACTION OF FUEL IN TOTAL FUELS AND OF OXIDANT IN TOTAL OXIDANTS









               THERMODYNAMIC EQUILIBRIUM PROPERTIES AT ASSIGNED

                           TEMPERATURE AND PRESSURE

 CASE =                

             REACTANT                    WT FRACTION      ENERGY      TEMP
                                          (SEE NOTE)     KJ/KG-MOL      K  
 FUEL        H2                           1.0000000         0.000      0.000
 OXIDANT     H2                           1.0000000         0.000      0.000

 O/F=    1.00000  %FUEL= 50.000000  R,EQ.RATIO= 0.000000  PHI,EQ.RATIO=-1.000000

 THERMODYNAMIC PROPERTIES

 P, BAR            100.00   100.00   100.00   100.00   100.00   100.00   100.00   100.00
 T, K             7500.00  7550.00  7600.00  7650.00  7700.00  7750.00  7800.00  7850.00
 RHO, KG/CU M    1.7008-1 1.6859-1 1.6713-1 1.6572-1 1.6433-1 1.6299-1 1.6167-1 1.6038-1
 H, KJ/KG        341956.8 343935.7 345869.2 347759.7 349609.1 351419.6 353193.1 354931.3
 U, KJ/KG        283159.6 284618.4 286036.4 287415.5 288757.8 290065.0 291339.0 292581.3
 G, KJ/KG       -706027.4-713020.6-720026.7-727045.4-734076.3-741119.1-748173.5-755239.1
 S, KJ/(KG)(K)   139.7312 139.9942 140.2495 140.4974 140.7384 140.9727 141.2008 141.4230

 M, (1/n)           1.061    1.058    1.056    1.054    1.052    1.050    1.048    1.047
 (dLV/dLP)t      -1.04470 -1.04305 -1.04145 -1.03992 -1.03845 -1.03704 -1.03568 -1.03438
 (dLV/dLT)p        1.3325   1.3181   1.3043   1.2911   1.2786   1.2666   1.2552   1.2443
 Cp, KJ/(KG)(K)   40.0451  39.1164  38.2326  37.3919  36.5927  35.8331  35.1115  34.4260
 GAMMAs            1.4345   1.4407   1.4468   1.4529   1.4590   1.4650   1.4709   1.4767
 SON VEL,M/SEC     9184.1   9244.4   9304.2   9363.6   9422.4   9480.6   9538.3   9595.5

 TRANSPORT PROPERTIES (GASES ONLY)
   CONDUCTIVITY IN UNITS OF MILLIWATTS/(CM)(K)

 VISC,MILLIPOISE  0.85772  0.86006  0.86250  0.86504  0.86768  0.87042  0.87325  0.87616

  WITH EQUILIBRIUM REACTIONS

 Cp, KJ/(KG)(K)   40.0451  39.1164  38.2326  37.3919  36.5927  35.8331  35.1115  34.4260
 CONDUCTIVITY     54.9361  53.7427  52.6115  51.5401  50.5261  49.5670  48.6607  47.8046
 PRANDTL NUMBER    0.6252   0.6260   0.6268   0.6276   0.6284   0.6292   0.6301   0.6310

  WITH FROZEN REACTIONS

 Cp, KJ/(KG)(K)   20.6530  20.6510  20.6490  20.6470  20.6450  20.6430  20.6410  20.6391
 CONDUCTIVITY     25.5711  25.6714  25.7741  25.8791  25.9864  26.0957  26.2070  26.3203
 PRANDTL NUMBER    0.6928   0.6919   0.6910   0.6901   0.6893   0.6885   0.6878   0.6870

 MASS FRACTIONS

 *H               0.90074  0.90486  0.90877  0.91250  0.91605  0.91944  0.92266  0.92573
 *H2              0.09926  0.09514  0.09123  0.08750  0.08395  0.08056  0.07734  0.07427

  * THERMODYNAMIC PROPERTIES FITTED TO 20000.K

 NOTE. WEIGHT FRACTION OF FUEL IN TOTAL FUELS AND OF OXIDANT IN TOTAL OXIDANTS









               THERMODYNAMIC EQUILIBRIUM PROPERTIES AT ASSIGNED

                           TEMPERATURE AND PRESSURE

 CASE =                

             REACTANT                    WT FRACTION      ENERGY      TEMP
                                          (SEE NOTE)     KJ/KG-MOL      K  
 FUEL        H2                           1.0000000         0.000      0.000
 OXIDANT     H2                           1.0000000         0.000      0.000

 O/F=    1.00000  %FUEL= 50.000000  R,EQ.RATIO= 0.000000  PHI,EQ.RATIO=-1.000000

 THERMODYNAMIC PROPERTIES

 P, BAR            100.00   100.00   100.00   100.00   100.00   100.00   100.00   100.00
 T, K             7900.00  7950.00  8000.00  8050.00  8100.00  8150.00  8200.00  8250.00
 RHO, KG/CU M    1.5913-1 1.5790-1 1.5670-1 1.5552-1 1.5437-1 1.5324-1 1.5213-1 1.5105-1
 H, KJ/KG        356636.2 358309.4 359952.4 361566.9 363154.2 364715.8 366253.0 367766.9
 U, KJ/KG        293793.8 294977.8 296134.9 297266.4 298373.6 299457.8 300520.3 301562.0
 G, KJ/KG       -762315.7-769403.0-776500.7-783608.6-790726.4-797853.9-804991.0-812137.3
 S, KJ/(KG)(K)   141.6395 141.8506 142.0566 142.2578 142.4544 142.6466 142.8346 143.0187

 M, (1/n)           1.045    1.044    1.042    1.041    1.040    1.038    1.037    1.036
 (dLV/dLP)t      -1.03313 -1.03193 -1.03078 -1.02968 -1.02862 -1.02760 -1.02663 -1.02570
 (dLV/dLT)p        1.2339   1.2240   1.2146   1.2056   1.1971   1.1889   1.1812   1.1738
 Cp, KJ/(KG)(K)   33.7750  33.1570  32.5702  32.0133  31.4846  30.9828  30.5065  30.0545
 GAMMAs            1.4825   1.4882   1.4938   1.4993   1.5046   1.5099   1.5151   1.5202
 SON VEL,M/SEC     9652.1   9708.2   9763.6   9818.5   9872.8   9926.5   9979.6  10032.1

 TRANSPORT PROPERTIES (GASES ONLY)
   CONDUCTIVITY IN UNITS OF MILLIWATTS/(CM)(K)

 VISC,MILLIPOISE  0.87917  0.88225  0.88542  0.88866  0.89197  0.89536  0.89881  0.90233

  WITH EQUILIBRIUM REACTIONS

 Cp, KJ/(KG)(K)   33.7750  33.1570  32.5702  32.0133  31.4846  30.9828  30.5065  30.0545
 CONDUCTIVITY     46.9966  46.2344  45.5159  44.8392  44.2021  43.6027  43.0393  42.5101
 PRANDTL NUMBER    0.6318   0.6327   0.6336   0.6345   0.6353   0.6362   0.6371   0.6379

  WITH FROZEN REACTIONS

 Cp, KJ/(KG)(K)   20.6371  20.6352  20.6333  20.6315  20.6296  20.6279  20.6261  20.6244
 CONDUCTIVITY     26.4355  26.5524  26.6710  26.7913  26.9131  27.0364  27.1612  27.2873
 PRANDTL NUMBER    0.6863   0.6856   0.6850   0.6843   0.6837   0.6831   0.6826   0.6820

 MASS FRACTIONS

 *H               0.92865  0.93144  0.93410  0.93663  0.93905  0.94135  0.94355  0.94565
 *H2              0.07135  0.06856  0.06590  0.06337  0.06095  0.05865  0.05645  0.05435

  * THERMODYNAMIC PROPERTIES FITTED TO 20000.K

 NOTE. WEIGHT FRACTION OF FUEL IN TOTAL FUELS AND OF OXIDANT IN TOTAL OXIDANTS









               THERMODYNAMIC EQUILIBRIUM PROPERTIES AT ASSIGNED

                           TEMPERATURE AND PRESSURE

 CASE =                

             REACTANT                    WT FRACTION      ENERGY      TEMP
                                          (SEE NOTE)     KJ/KG-MOL      K  
 FUEL        H2                           1.0000000         0.000      0.000
 OXIDANT     H2                           1.0000000         0.000      0.000

 O/F=    1.00000  %FUEL= 50.000000  R,EQ.RATIO= 0.000000  PHI,EQ.RATIO=-1.000000

 THERMODYNAMIC PROPERTIES

 P, BAR            100.00   100.00   100.00   100.00   125.00   125.00   125.00   125.00
 T, K             8300.00  8350.00  8400.00  8450.00  7500.00  7550.00  7600.00  7650.00
 RHO, KG/CU M    1.4998-1 1.4894-1 1.4791-1 1.4691-1 2.1492-1 2.1295-1 2.1103-1 2.0917-1
 H, KJ/KG        369258.8 370729.8 372180.9 373613.2 337235.3 339373.3 341461.2 343501.1
 U, KJ/KG        302584.1 303587.6 304573.5 305542.6 279072.8 280673.5 282228.9 283741.0
 G, KJ/KG       -819292.8-826457.2-833630.3-840812.0-692976.2-699851.4-706740.6-713643.4
 S, KJ/(KG)(K)   143.1990 143.3757 143.5490 143.7190 137.3615 137.6457 137.9213 138.1888

 M, (1/n)           1.035    1.034    1.033    1.032    1.072    1.069    1.067    1.064
 (dLV/dLP)t      -1.02481 -1.02395 -1.02313 -1.02234 -1.05271 -1.05088 -1.04910 -1.04739
 (dLV/dLT)p        1.1667   1.1600   1.1536   1.1475   1.3921   1.3759   1.3604   1.3455
 Cp, KJ/(KG)(K)   29.6254  29.2181  28.8314  28.4642  43.2781  42.2519  41.2705  40.3327
 GAMMAs            1.5251   1.5299   1.5346   1.5392   1.4176   1.4235   1.4294   1.4353
 SON VEL,M/SEC    10083.9  10135.2  10185.9  10236.0   9080.1   9141.0   9201.4   9261.4

 TRANSPORT PROPERTIES (GASES ONLY)
   CONDUCTIVITY IN UNITS OF MILLIWATTS/(CM)(K)

 VISC,MILLIPOISE  0.90590  0.90954  0.91323  0.91698  0.87290  0.87487  0.87695  0.87913

  WITH EQUILIBRIUM REACTIONS

 Cp, KJ/(KG)(K)   29.6254  29.2181  28.8314  28.4642  43.2781  42.2519  41.2705  40.3327
 CONDUCTIVITY     42.0133  41.5475  41.1110  40.7023  60.4952  59.1364  57.8412  56.6077
 PRANDTL NUMBER    0.6388   0.6396   0.6405   0.6413   0.6245   0.6251   0.6257   0.6264

  WITH FROZEN REACTIONS

 Cp, KJ/(KG)(K)   20.6227  20.6211  20.6196  20.6181  20.6571  20.6545  20.6520  20.6495
 CONDUCTIVITY     27.4147  27.5433  27.6731  27.8041  25.8669  25.9585  26.0527  26.1493
 PRANDTL NUMBER    0.6815   0.6810   0.6805   0.6800   0.6971   0.6961   0.6952   0.6942

 MASS FRACTIONS

 *H               0.94765  0.94956  0.95139  0.95313  0.88022  0.88503  0.88961  0.89399
 *H2              0.05235  0.05044  0.04861  0.04687  0.11978  0.11497  0.11039  0.10601

  * THERMODYNAMIC PROPERTIES FITTED TO 20000.K

 NOTE. WEIGHT FRACTION OF FUEL IN TOTAL FUELS AND OF OXIDANT IN TOTAL OXIDANTS









               THERMODYNAMIC EQUILIBRIUM PROPERTIES AT ASSIGNED

                           TEMPERATURE AND PRESSURE

 CASE =                

             REACTANT                    WT FRACTION      ENERGY      TEMP
                                          (SEE NOTE)     KJ/KG-MOL      K  
 FUEL        H2                           1.0000000         0.000      0.000
 OXIDANT     H2                           1.0000000         0.000      0.000

[...]
 *H2              0.17073  0.16557  0.16059  0.15577  0.32000  0.31104  0.30229  0.29375

  * THERMODYNAMIC PROPERTIES FITTED TO 20000.K

 NOTE. WEIGHT FRACTION OF FUEL IN TOTAL FUELS AND OF OXIDANT IN TOTAL OXIDANTS









               THERMODYNAMIC EQUILIBRIUM PROPERTIES AT ASSIGNED

                           TEMPERATURE AND PRESSURE

 CASE =                

             REACTANT                    WT FRACTION      ENERGY      TEMP
                                          (SEE NOTE)     KJ/KG-MOL      K  
 FUEL        H2                           1.0000000         0.000      0.000
 OXIDANT     H2                           1.0000000         0.000      0.000

 O/F=    1.00000  %FUEL= 50.000000  R,EQ.RATIO= 0.000000  PHI,EQ.RATIO=-1.000000

 THERMODYNAMIC PROPERTIES

 P, BAR            500.00   500.00   500.00   500.00   500.00   500.00   500.00   500.00
 T, K             7700.00  7750.00  7800.00  7850.00  7900.00  7950.00  8000.00  8050.00
 RHO, KG/CU M    9.1823-1 9.0800-1 8.9806-1 8.8838-1 8.7897-1 8.6981-1 8.6089-1 8.5220-1
 H, KJ/KG        303254.5 306156.0 309009.1 311814.0 314571.0 317280.8 319943.8 322560.8
 U, KJ/KG        248801.7 251090.1 253333.4 255531.9 257686.2 259796.8 261864.3 263889.4
 G, KJ/KG       -640568.8-646706.9-652863.6-659038.5-665231.1-671440.9-677667.7-683910.9
 S, KJ/(KG)(K)   122.5745 122.9501 123.3170 123.6755 124.0256 124.3675 124.7014 125.0275

 M, (1/n)           1.176    1.170    1.165    1.160    1.155    1.150    1.145    1.141
 (dLV/dLP)t      -1.10198 -1.10020 -1.09841 -1.09660 -1.09479 -1.09297 -1.09115 -1.08933
 (dLV/dLT)p        1.7388   1.7212   1.7038   1.6864   1.6693   1.6523   1.6355   1.6190
 Cp, KJ/(KG)(K)   58.5171  57.5450  56.5780  55.6180  54.6669  53.7262  52.7973  51.8816
 GAMMAs            1.3576   1.3617   1.3658   1.3699   1.3741   1.3783   1.3825   1.3868
 SON VEL,M/SEC     8597.9   8659.2   8720.1   8780.7   8841.1   8901.1   8960.8   9020.1

 TRANSPORT PROPERTIES (GASES ONLY)
   CONDUCTIVITY IN UNITS OF MILLIWATTS/(CM)(K)

 VISC,MILLIPOISE   1.0084   1.0095   1.0107   1.0118   1.0130   1.0142   1.0154   1.0167

  WITH EQUILIBRIUM REACTIONS

 Cp, KJ/(KG)(K)   58.5171  57.5450  56.5780  55.6180  54.6669  53.7262  52.7973  51.8816
 CONDUCTIVITY     93.9832  92.4540  90.9380  89.4379  87.9562  86.4951  85.0567  83.6428
 PRANDTL NUMBER    0.6279   0.6284   0.6288   0.6292   0.6296   0.6300   0.6303   0.6307

  WITH FROZEN REACTIONS

 Cp, KJ/(KG)(K)   20.6679  20.6608  20.6537  20.6468  20.6399  20.6331  20.6265  20.6200
 CONDUCTIVITY     28.8987  28.9530  29.0089  29.0666  29.1261  29.1874  29.2506  29.3158
 PRANDTL NUMBER    0.7212   0.7204   0.7196   0.7187   0.7178   0.7169   0.7160   0.7151

 MASS FRACTIONS

 *H               0.71458  0.72270  0.73061  0.73831  0.74581  0.75310  0.76020  0.76709
 *H2              0.28542  0.27730  0.26939  0.26169  0.25419  0.24690  0.23980  0.23291

  * THERMODYNAMIC PROPERTIES FITTED TO 20000.K

 NOTE. WEIGHT FRACTION OF FUEL IN TOTAL FUELS AND OF OXIDANT IN TOTAL OXIDANTS









               THERMODYNAMIC EQUILIBRIUM PROPERTIES AT ASSIGNED

                           TEMPERATURE AND PRESSURE

 CASE =                

             REACTANT                    WT FRACTION      ENERGY      TEMP
                                          (SEE NOTE)     KJ/KG-MOL      K  
 FUEL        H2                           1.0000000         0.000      0.000
 OXIDANT     H2                           1.0000000         0.000      0.000

 O/F=    1.00000  %FUEL= 50.000000  R,EQ.RATIO= 0.000000  PHI,EQ.RATIO=-1.000000

 THERMODYNAMIC PROPERTIES

 P, BAR            500.00   500.00   500.00   500.00   500.00   500.00   500.00   500.00
 T, K             8100.00  8150.00  8200.00  8250.00  8300.00  8350.00  8400.00  8450.00
 RHO, KG/CU M    8.4375-1 8.3551-1 8.2748-1 8.1965-1 8.1202-1 8.0458-1 7.9732-1 7.9023-1
 H, KJ/KG        325132.2 327659.0 330141.9 332581.8 334979.4 337335.7 339651.7 341928.1
 U, KJ/KG        265872.7 267815.1 269717.3 271580.2 273404.6 275191.4 276941.5 278655.7
 G, KJ/KG       -690170.3-696445.4-702735.9-709041.4-715361.5-721696.0-728044.4-734406.5
 S, KJ/(KG)(K)   125.3460 125.6570 125.9607 126.2573 126.5471 126.8301 127.1067 127.3769

 M, (1/n)           1.136    1.132    1.128    1.124    1.121    1.117    1.114    1.110
 (dLV/dLP)t      -1.08752 -1.08572 -1.08393 -1.08215 -1.08040 -1.07866 -1.07694 -1.07524
 (dLV/dLT)p        1.6027   1.5867   1.5710   1.5555   1.5404   1.5256   1.5111   1.4969
 Cp, KJ/(KG)(K)   50.9803  50.0942  49.2245  48.3716  47.5365  46.7195  45.9211  45.1416
 GAMMAs            1.3910   1.3953   1.3996   1.4039   1.4083   1.4126   1.4170   1.4213
 SON VEL,M/SEC     9079.2   9137.9   9196.3   9254.3   9312.0   9369.4   9426.4   9483.1

 TRANSPORT PROPERTIES (GASES ONLY)
   CONDUCTIVITY IN UNITS OF MILLIWATTS/(CM)(K)

 VISC,MILLIPOISE   1.0181   1.0195   1.0209   1.0224   1.0240   1.0256   1.0273   1.0290

  WITH EQUILIBRIUM REACTIONS

 Cp, KJ/(KG)(K)   50.9803  50.0942  49.2245  48.3716  47.5365  46.7195  45.9211  45.1416
 CONDUCTIVITY     82.2549  80.8943  79.5623  78.2597  76.9875  75.7463  74.5365  73.3585
 PRANDTL NUMBER    0.6310   0.6313   0.6316   0.6320   0.6323   0.6326   0.6329   0.6332

  WITH FROZEN REACTIONS

 Cp, KJ/(KG)(K)   20.6136  20.6073  20.6013  20.5954  20.5896  20.5840  20.5786  20.5734
 CONDUCTIVITY     29.3829  29.4520  29.5231  29.5962  29.6713  29.7484  29.8275  29.9085
 PRANDTL NUMBER    0.7142   0.7133   0.7124   0.7115   0.7106   0.7097   0.7088   0.7079

 MASS FRACTIONS

 *H               0.77379  0.78029  0.78660  0.79273  0.79868  0.80444  0.81003  0.81546
 *H2              0.22621  0.21971  0.21340  0.20727  0.20132  0.19556  0.18997  0.18454

  * THERMODYNAMIC PROPERTIES FITTED TO 20000.K

 NOTE. WEIGHT FRACTION OF FUEL IN TOTAL FUELS AND OF OXIDANT IN TOTAL OXIDANTS









               THERMODYNAMIC EQUILIBRIUM PROPERTIES AT ASSIGNED

                           TEMPERATURE AND PRESSURE

 CASE =                

             REACTANT                    WT FRACTION      ENERGY      TEMP
                                          (SEE NOTE)     KJ/KG-MOL      K  
 FUEL        H2                           1.0000000         0.000      0.000
 OXIDANT     H2                           1.0000000         0.000      0.000

 O/F=    1.00000  %FUEL= 50.000000  R,EQ.RATIO= 0.000000  PHI,EQ.RATIO=-1.000000

 THERMODYNAMIC PROPERTIES

 P, BAR            625.00   625.00   625.00   625.00   625.00   625.00   625.00   625.00
 T, K             7500.00  7550.00  7600.00  7650.00  7700.00  7750.00  7800.00  7850.00
 RHO, KG/CU M    1.2331 0 1.2181 0 1.2034 0 1.1891 0 1.1753 0 1.1617 0 1.1486 0 1.1358 0
 H, KJ/KG        281599.6 284772.0 287902.5 290990.3 294035.1 297036.5 299994.2 302908.2
 U, KJ/KG        230916.3 233461.6 235966.7 238431.3 240854.9 243237.6 245579.1 247879.5
 G, KJ/KG       -604756.8-610676.4-616616.9-622577.8-628558.8-634559.4-640579.3-646617.9
 S, KJ/(KG)(K)   118.1809 118.6024 119.0157 119.4207 119.8174 120.2059 120.5863 120.9587

 M, (1/n)           1.230    1.223    1.217    1.210    1.204    1.198    1.192    1.186
 (dLV/dLP)t      -1.11542 -1.11409 -1.11270 -1.11126 -1.10977 -1.10824 -1.10668 -1.10508
 (dLV/dLT)p        1.8586   1.8430   1.8273   1.8113   1.7953   1.7791   1.7629   1.7467
 Cp, KJ/(KG)(K)   63.8636  63.0306  62.1845  61.3278  60.4628  59.5919  58.7172  57.8409
 GAMMAs            1.3335   1.3372   1.3409   1.3446   1.3484   1.3522   1.3561   1.3599
 SON VEL,M/SEC     8221.1   8283.2   8345.0   8406.6   8468.0   8529.2   8590.1   8650.7

 TRANSPORT PROPERTIES (GASES ONLY)
   CONDUCTIVITY IN UNITS OF MILLIWATTS/(CM)(K)

 VISC,MILLIPOISE   1.0271   1.0284   1.0298   1.0311   1.0324   1.0336   1.0349   1.0361

  WITH EQUILIBRIUM REACTIONS

 Cp, KJ/(KG)(K)   63.8636  63.0306  62.1845  61.3278  60.4628  59.5919  58.7172  57.8409
 CONDUCTIVITY    105.0732 103.7042 102.3191 100.9219  99.5163  98.1061  96.6945  95.2849
 PRANDTL NUMBER    0.6243   0.6251   0.6258   0.6266   0.6272   0.6278   0.6284   0.6290

  WITH FROZEN REACTIONS

 Cp, KJ/(KG)(K)   20.7047  20.6967  20.6886  20.6805  20.6724  20.6644  20.6563  20.6484
 CONDUCTIVITY     29.2561  29.3053  29.3550  29.4054  29.4566  29.5088  29.5621  29.6167
 PRANDTL NUMBER    0.7269   0.7263   0.7258   0.7251   0.7245   0.7238   0.7231   0.7224

 MASS FRACTIONS

 *H               0.63844  0.64773  0.65684  0.66577  0.67451  0.68306  0.69143  0.69960
 *H2              0.36156  0.35227  0.34316  0.33423  0.32549  0.31694  0.30857  0.30040

  * THERMODYNAMIC PROPERTIES FITTED TO 20000.K

 NOTE. WEIGHT FRACTION OF FUEL IN TOTAL FUELS AND OF OXIDANT IN TOTAL OXIDANTS









               THERMODYNAMIC EQUILIBRIUM PROPERTIES AT ASSIGNED

                           TEMPERATURE AND PRESSURE

 CASE =                

             REACTANT                    WT FRACTION      ENERGY      TEMP
                                          (SEE NOTE)     KJ/KG-MOL      K  
 FUEL        H2                           1.0000000         0.000      0.000
 OXIDANT     H2                           1.0000000         0.000      0.000

 O/F=    1.00000  %FUEL= 50.000000  R,EQ.RATIO= 0.000000  PHI,EQ.RATIO=-1.000000

 THERMODYNAMIC PROPERTIES

 P, BAR            625.00   625.00   625.00   625.00   625.00   625.00   625.00   625.00
 T, K             7900.00  7950.00  8000.00  8050.00  8100.00  8150.00  8200.00  8250.00
 RHO, KG/CU M    1.1233 0 1.1112 0 1.0993 0 1.0878 0 1.0766 0 1.0657 0 1.0550 0 1.0446 0
 H, KJ/KG        305778.3 308604.7 311387.5 314126.8 316823.1 319476.7 322088.1 324657.7
 U, KJ/KG        250138.8 252357.3 254535.1 256672.6 258770.2 260828.3 262847.4 264828.0
 G, KJ/KG       -652675.0-658750.1-664842.9-670952.9-677079.7-683223.1-689382.7-695558.0
 S, KJ/(KG)(K)   121.3232 121.6799 122.0288 122.3701 122.7041 123.0307 123.3501 123.6625

 M, (1/n)           1.181    1.175    1.170    1.165    1.160    1.155    1.151    1.146
 (dLV/dLP)t      -1.10345 -1.10180 -1.10013 -1.09845 -1.09676 -1.09505 -1.09335 -1.09164
 (dLV/dLT)p        1.7305   1.7143   1.6982   1.6822   1.6663   1.6506   1.6351   1.6197
 Cp, KJ/(KG)(K)   56.9647  56.0907  55.2205  54.3557  53.4977  52.6479  51.8076  50.9778
 GAMMAs            1.3638   1.3678   1.3717   1.3757   1.3797   1.3838   1.3878   1.3919
 SON VEL,M/SEC     8711.1   8771.2   8831.0   8890.5   8949.8   9008.7   9067.3   9125.6

 TRANSPORT PROPERTIES (GASES ONLY)
   CONDUCTIVITY IN UNITS OF MILLIWATTS/(CM)(K)

 VISC,MILLIPOISE   1.0374   1.0387   1.0400   1.0413   1.0426   1.0440   1.0454   1.0468

  WITH EQUILIBRIUM REACTIONS

 Cp, KJ/(KG)(K)   56.9647  56.0907  55.2205  54.3557  53.4977  52.6479  51.8076  50.9778
 CONDUCTIVITY     93.8801  92.4829  91.0960  89.7216  88.3620  87.0191  85.6947  84.3904
 PRANDTL NUMBER    0.6295   0.6300   0.6304   0.6308   0.6312   0.6316   0.6320   0.6323

  WITH FROZEN REACTIONS

 Cp, KJ/(KG)(K)   20.6405  20.6327  20.6250  20.6175  20.6101  20.6028  20.5957  20.5888
 CONDUCTIVITY     29.6725  29.7298  29.7885  29.8488  29.9107  29.9743  30.0396  30.1066
 PRANDTL NUMBER    0.7216   0.7209   0.7201   0.7192   0.7184   0.7176   0.7167   0.7159

 MASS FRACTIONS

 *H               0.70759  0.71539  0.72301  0.73043  0.73767  0.74473  0.75160  0.75829
 *H2              0.29241  0.28461  0.27699  0.26957  0.26233  0.25527  0.24840  0.24171

  * THERMODYNAMIC PROPERTIES FITTED TO 20000.K

 NOTE. WEIGHT FRACTION OF FUEL IN TOTAL FUELS AND OF OXIDANT IN TOTAL OXIDANTS









               THERMODYNAMIC EQUILIBRIUM PROPERTIES AT ASSIGNED

                           TEMPERATURE AND PRESSURE

 CASE =                

             REACTANT                    WT FRACTION      ENERGY      TEMP
                                          (SEE NOTE)     KJ/KG-MOL      K  
 FUEL        H2                           1.0000000         0.000      0.000
 OXIDANT     H2                           1.0000000         0.000      0.000

 O/F=    1.00000  %FUEL= 50.000000  R,EQ.RATIO= 0.000000  PHI,EQ.RATIO=-1.000000

 THERMODYNAMIC PROPERTIES

 P, BAR            625.00   625.00   625.00   625.00   800.00   800.00   800.00   800.00
 T, K             8300.00  8350.00  8400.00  8450.00  7500.00  7550.00  7600.00  7650.00
 RHO, KG/CU M    1.0345 0 1.0246 0 1.0150 0 1.0056 0 1.6252 0 1.6049 0 1.5851 0 1.5658 0
 H, KJ/KG        327186.1 329673.9 332121.7 334530.2 270748.3 273961.7 277141.6 280286.8
 U, KJ/KG        266770.7 268676.2 270545.1 272378.1 221523.7 224114.3 226671.8 229195.6
 G, KJ/KG       -701748.8-707954.7-714175.4-720410.5-592424.6-598189.8-603976.2-609783.4
 S, KJ/(KG)(K)   123.9681 124.2669 124.5592 124.8451 115.0897 115.5168 115.9365 116.3490

 M, (1/n)           1.142    1.138    1.134    1.130    1.267    1.259    1.252    1.245
 (dLV/dLP)t      -1.08994 -1.08824 -1.08655 -1.08487 -1.12083 -1.11992 -1.11894 -1.11789
 (dLV/dLT)p        1.6045   1.5896   1.5749   1.5604   1.8988   1.8861   1.8731   1.8597
 Cp, KJ/(KG)(K)   50.1596  49.3539  48.5614  47.7828  64.5980  63.9361  63.2538  62.5533
 GAMMAs            1.3960   1.4001   1.4042   1.4083   1.3254   1.3288   1.3322   1.3357
 SON VEL,M/SEC     9183.7   9241.4   9298.7   9355.8   8077.2   8138.6   8199.9   8261.0

 TRANSPORT PROPERTIES (GASES ONLY)
   CONDUCTIVITY IN UNITS OF MILLIWATTS/(CM)(K)

 VISC,MILLIPOISE   1.0483   1.0498   1.0513   1.0529   1.0509   1.0528   1.0546   1.0563

  WITH EQUILIBRIUM REACTIONS

 Cp, KJ/(KG)(K)   50.1596  49.3539  48.5614  47.7828  64.5980  63.9361  63.2538  62.5533
 CONDUCTIVITY     83.1075  81.8475  80.6112  79.3998 109.2463 108.1298 106.9826 105.8085
 PRANDTL NUMBER    0.6327   0.6330   0.6333   0.6337   0.6214   0.6225   0.6235   0.6245

  WITH FROZEN REACTIONS

 Cp, KJ/(KG)(K)   20.5821  20.5755  20.5692  20.5630  20.7140  20.7051  20.6960  20.6869
 CONDUCTIVITY     30.1754  30.2460  30.3184  30.3926  29.8709  29.9244  29.9776  30.0307
 PRANDTL NUMBER    0.7150   0.7141   0.7133   0.7124   0.7287   0.7284   0.7281   0.7276

 MASS FRACTIONS

 *H               0.76481  0.77115  0.77731  0.78331  0.59129  0.60075  0.61007  0.61925
 *H2              0.23519  0.22885  0.22269  0.21669  0.40871  0.39925  0.38993  0.38075

  * THERMODYNAMIC PROPERTIES FITTED TO 20000.K

 NOTE. WEIGHT FRACTION OF FUEL IN TOTAL FUELS AND OF OXIDANT IN TOTAL OXIDANTS









               THERMODYNAMIC EQUILIBRIUM PROPERTIES AT ASSIGNED

                           TEMPERATURE AND PRESSURE

 CASE =                

             REACTANT                    WT FRACTION      ENERGY      TEMP
                                          (SEE NOTE)     KJ/KG-MOL      K  
 FUEL        H2                           1.0000000         0.000      0.000
 OXIDANT     H2                           1.0000000         0.000      0.000

 O/F=    1.00000  %FUEL= 50.000000  R,EQ.RATIO= 0.000000  PHI,EQ.RATIO=-1.000000

 THERMODYNAMIC PROPERTIES

 P, BAR            800.00   800.00   800.00   800.00   800.00   800.00   800.00   800.00
 T, K             7700.00  7750.00  7800.00  7850.00  7900.00  7950.00  8000.00  8050.00
 RHO, KG/CU M    1.5470 0 1.5287 0 1.5109 0 1.4935 0 1.4766 0 1.4601 0 1.4440 0 1.4283 0
 H, KJ/KG        283396.6 286470.2 289507.0 292506.4 295467.9 298391.2 301276.1 304122.3
 U, KJ/KG        231684.9 234139.3 236558.3 238941.5 241288.6 243599.5 245873.9 248111.9
 G, KJ/KG       -615611.0-621458.7-627326.1-633212.8-639118.5-645042.9-650985.5-656946.1
 S, KJ/(KG)(K)   116.7542 117.1521 117.5427 117.9260 118.3021 118.6710 119.0327 119.3874

 M, (1/n)           1.238    1.231    1.225    1.219    1.212    1.206    1.201    1.195
 (dLV/dLP)t      -1.11677 -1.11560 -1.11436 -1.11308 -1.11175 -1.11038 -1.10897 -1.10753
 (dLV/dLT)p        1.8460   1.8320   1.8179   1.8035   1.7890   1.7745   1.7598   1.7451
 Cp, KJ/(KG)(K)   61.8366  61.1059  60.3632  59.6105  58.8496  58.0825  57.3109  56.5366
 GAMMAs            1.3392   1.3428   1.3464   1.3500   1.3536   1.3573   1.3610   1.3647
 SON VEL,M/SEC     8321.9   8382.7   8443.3   8503.6   8563.8   8623.7   8683.5   8742.9

 TRANSPORT PROPERTIES (GASES ONLY)
   CONDUCTIVITY IN UNITS OF MILLIWATTS/(CM)(K)

 VISC,MILLIPOISE   1.0580   1.0596   1.0612   1.0628   1.0643   1.0658   1.0673   1.0688

  WITH EQUILIBRIUM REACTIONS

 Cp, KJ/(KG)(K)   61.8366  61.1059  60.3632  59.6105  58.8496  58.0825  57.3109  56.5366
 CONDUCTIVITY    104.6111 103.3941 102.1608 100.9146  99.6586  98.3960  97.1295  95.8619
 PRANDTL NUMBER    0.6254   0.6262   0.6270   0.6278   0.6285   0.6291   0.6297   0.6303

  WITH FROZEN REACTIONS

 Cp, KJ/(KG)(K)   20.6777  20.6685  20.6594  20.6502  20.6412  20.6322  20.6233  20.6145
 CONDUCTIVITY     30.0839  30.1373  30.1910  30.2453  30.3003  30.3560  30.4126  30.4702
 PRANDTL NUMBER    0.7272   0.7267   0.7262   0.7256   0.7250   0.7244   0.7237   0.7231

 MASS FRACTIONS

 *H               0.62827  0.63713  0.64584  0.65439  0.66278  0.67100  0.67906  0.68695
 *H2              0.37173  0.36287  0.35416  0.34561  0.33722  0.32900  0.32094  0.31305

  * THERMODYNAMIC PROPERTIES FITTED TO 20000.K

 NOTE. WEIGHT FRACTION OF FUEL IN TOTAL FUELS AND OF OXIDANT IN TOTAL OXIDANTS









               THERMODYNAMIC EQUILIBRIUM PROPERTIES AT ASSIGNED

                           TEMPERATURE AND PRESSURE

 CASE =                

             REACTANT                    WT FRACTION      ENERGY      TEMP
                                          (SEE NOTE)     KJ/KG-MOL      K  
 FUEL        H2                           1.0000000         0.000      0.000
 OXIDANT     H2                           1.0000000         0.000      0.000

 O/F=    1.00000  %FUEL= 50.000000  R,EQ.RATIO= 0.000000  PHI,EQ.RATIO=-1.000000

 THERMODYNAMIC PROPERTIES

 P, BAR            800.00   800.00   800.00   800.00   800.00   800.00   800.00   800.00
 T, K             8100.00  8150.00  8200.00  8250.00  8300.00  8350.00  8400.00  8450.00
 RHO, KG/CU M    1.4130 0 1.3981 0 1.3836 0 1.3694 0 1.3556 0 1.3421 0 1.3289 0 1.3161 0
 H, KJ/KG        306929.7 309698.4 312428.3 315119.7 317772.6 320387.4 322964.3 325503.7
 U, KJ/KG        250313.4 252478.6 254607.5 256700.5 258757.8 260779.6 262766.4 264718.5
 G, KJ/KG       -662924.1-668919.4-674931.6-680960.3-687005.2-693066.0-699142.3-705233.8
 S, KJ/(KG)(K)   119.7350 120.0758 120.4097 120.7370 121.0576 121.3717 121.6794 121.9808

 M, (1/n)           1.190    1.184    1.179    1.174    1.169    1.165    1.160    1.156
 (dLV/dLP)t      -1.10605 -1.10455 -1.10303 -1.10149 -1.09994 -1.09837 -1.09679 -1.09521
 (dLV/dLT)p        1.7303   1.7156   1.7009   1.6863   1.6717   1.6573   1.6429   1.6287
 Cp, KJ/(KG)(K)   55.7610  54.9858  54.2124  53.4421  52.6761  51.9157  51.1619  50.4157
 GAMMAs            1.3685   1.3722   1.3760   1.3798   1.3837   1.3875   1.3914   1.3953
 SON VEL,M/SEC     8802.1   8861.1   8919.8   8978.3   9036.5   9094.4   9152.0   9209.3

 TRANSPORT PROPERTIES (GASES ONLY)
   CONDUCTIVITY IN UNITS OF MILLIWATTS/(CM)(K)

 VISC,MILLIPOISE   1.0702   1.0717   1.0732   1.0747   1.0762   1.0777   1.0793   1.0808

  WITH EQUILIBRIUM REACTIONS

 Cp, KJ/(KG)(K)   55.7610  54.9858  54.2124  53.4421  52.6761  51.9157  51.1619  50.4157
 CONDUCTIVITY     94.5957  93.3335  92.0773  90.8294  89.5916  88.3657  87.1534  85.9561
 PRANDTL NUMBER    0.6309   0.6314   0.6319   0.6323   0.6328   0.6332   0.6336   0.6339

  WITH FROZEN REACTIONS

 Cp, KJ/(KG)(K)   20.6059  20.5974  20.5891  20.5809  20.5730  20.5652  20.5577  20.5503
 CONDUCTIVITY     30.5289  30.5888  30.6499  30.7124  30.7762  30.8415  30.9083  30.9765
 PRANDTL NUMBER    0.7224   0.7217   0.7209   0.7202   0.7194   0.7186   0.7178   0.7170

 MASS FRACTIONS

 *H               0.69467  0.70223  0.70962  0.71684  0.72390  0.73079  0.73752  0.74409
 *H2              0.30533  0.29777  0.29038  0.28316  0.27610  0.26921  0.26248  0.25591

  * THERMODYNAMIC PROPERTIES FITTED TO 20000.K

 NOTE. WEIGHT FRACTION OF FUEL IN TOTAL FUELS AND OF OXIDANT IN TOTAL OXIDANTS



  
