
 *******************************************************************************

         NASA-GLENN CHEMICAL EQUILIBRIUM PROGRAM CEA2, MAY 21, 2004
                   BY  BONNIE MCBRIDE AND SANFORD GORDON
      REFS: NASA RP-1311, PART I, 1994 AND NASA RP-1311, PART II, 1996

 *******************************************************************************



  prob tp ions
  p,bar= 0.0049,0.0054,0.006,0.0067,0.0074,0.00825,0.0091,0.01,0.011,0.012,0.0132
 ,0.0148,0.0165,0.018,0.02
  t,k= 4400,4410,4420,4430,4440,4450,4460,4470,4480,4490,4500,4510,4520,4530,4540
  
  
  reac
  fuel H2                wt%=100.0000
  oxid H2                wt%=100.0000
  
  output short
  
  output massf
  
  output siunits
  
  output transport
  
 end





               THERMODYNAMIC EQUILIBRIUM PROPERTIES AT ASSIGNED

                           TEMPERATURE AND PRESSURE

 CASE =                

             REACTANT                    WT FRACTION      ENERGY      TEMP
                                          (SEE NOTE)     KJ/KG-MOL      K  
 FUEL        H2                           1.0000000         0.000      0.000
 OXIDANT     H2                           1.0000000         0.000      0.000

 O/F=    1.00000  %FUEL= 50.000000  R,EQ.RATIO= 0.000000  PHI,EQ.RATIO=-1.000000

 THERMODYNAMIC PROPERTIES

 P, BAR           0.00490  0.00490  0.00490  0.00490  0.00490  0.00490  0.00490  0.00490
 T, K             4400.00  4410.00  4420.00  4430.00  4440.00  4450.00  4460.00  4470.00
 RHO, KG/CU M    1.3507-5 1.3477-5 1.3446-5 1.3415-5 1.3385-5 1.3355-5 1.3325-5 1.3295-5
 H, KJ/KG        300629.5 300843.4 301056.7 301269.9 301482.8 301695.6 301908.1 302120.5
 U, KJ/KG        264353.4 264484.2 264614.5 264744.7 264874.7 265004.5 265134.1 265263.5
 G, KJ/KG       -637218.7-639349.5-641481.7-643614.3-645747.5-647881.1-650015.3-652149.9
 S, KJ/(KG)(K)   213.1473 213.1957 213.2440 213.2922 213.3402 213.3880 213.4357 213.4833

 M, (1/n)           1.008    1.008    1.008    1.008    1.008    1.008    1.008    1.008
 (dLV/dLP)t      -1.00054 -1.00053 -1.00051 -1.00050 -1.00048 -1.00047 -1.00046 -1.00045
 (dLV/dLT)p        1.0069   1.0067   1.0065   1.0064   1.0062   1.0060   1.0058   1.0057
 Cp, KJ/(KG)(K)   21.3671  21.3451  21.3238  21.3034  21.2839  21.2651  21.2472  21.2299
 GAMMAs            1.6412   1.6419   1.6426   1.6433   1.6439   1.6445   1.6451   1.6457
 SON VEL,M/SEC     7716.0   7726.5   7736.9   7747.3   7757.6   7767.8   7778.0   7788.1

 TRANSPORT PROPERTIES (GASES ONLY)
   CONDUCTIVITY IN UNITS OF MILLIWATTS/(CM)(K)

 VISC,MILLIPOISE  0.48945  0.49034  0.49123  0.49212  0.49300  0.49389  0.49478  0.49567

  WITH EQUILIBRIUM REACTIONS

 Cp, KJ/(KG)(K)   21.3671  21.3451  21.3238  21.3034  21.2839  21.2651  21.2472  21.2299
 CONDUCTIVITY     15.7778  15.7863  15.7952  15.8048  15.8150  15.8259  15.8373  15.8493
 PRANDTL NUMBER    0.6628   0.6630   0.6632   0.6633   0.6635   0.6636   0.6638   0.6639

  WITH FROZEN REACTIONS

 Cp, KJ/(KG)(K)   20.6217  20.6217  20.6218  20.6218  20.6218  20.6219  20.6219  20.6219
 CONDUCTIVITY     15.1333  15.1609  15.1886  15.2164  15.2441  15.2718  15.2995  15.3272
 PRANDTL NUMBER    0.6670   0.6670   0.6669   0.6669   0.6669   0.6669   0.6669   0.6669

 MASS FRACTIONS

 *H               0.99891  0.99894  0.99897  0.99900  0.99903  0.99906  0.99908  0.99911
 *H+              0.00000  0.00001  0.00001  0.00001  0.00001  0.00001  0.00001  0.00001
 *H2              0.00108  0.00105  0.00102  0.00099  0.00097  0.00094  0.00091  0.00089

  * THERMODYNAMIC PROPERTIES FITTED TO 20000.K

 NOTE. WEIGHT FRACTION OF FUEL IN TOTAL FUELS AND OF OXIDANT IN TOTAL OXIDANTS









               THERMODYNAMIC EQUILIBRIUM PROPERTIES AT ASSIGNED

                           TEMPERATURE AND PRESSURE

 CASE =                

             REACTANT                    WT FRACTION      ENERGY      TEMP
                                          (SEE NOTE)     KJ/KG-MOL      K  
 FUEL        H2                           1.0000000         0.000      0.000
 OXIDANT     H2                           1.0000000         0.000      0.000

 O/F=    1.00000  %FUEL= 50.000000  R,EQ.RATIO= 0.000000  PHI,EQ.RATIO=-1.000000

 THERMODYNAMIC PROPERTIES

 P, BAR           0.00490  0.00490  0.00490  0.00490  0.00490  0.00490  0.00490  0.00540
 T, K             4480.00  4490.00  4500.00  4510.00  4520.00  4530.00  4540.00  4400.00
 RHO, KG/CU M    1.3265-5 1.3235-5 1.3206-5 1.3176-5 1.3147-5 1.3118-5 1.3089-5 1.4887-5
 H, KJ/KG        302332.7 302544.8 302756.7 302968.4 303180.0 303391.5 303602.9 300604.2
 U, KJ/KG        265392.8 265522.0 265651.0 265779.9 265908.6 266037.2 266165.7 264330.0
 G, KJ/KG       -654284.9-656420.5-658556.5-660693.0-662829.9-664967.4-667105.2-633693.1
 S, KJ/(KG)(K)   213.5307 213.5780 213.6251 213.6722 213.7190 213.7658 213.8124 212.3403

 M, (1/n)           1.008    1.008    1.008    1.008    1.008    1.008    1.008    1.009
 (dLV/dLP)t      -1.00043 -1.00042 -1.00041 -1.00040 -1.00039 -1.00038 -1.00037 -1.00060
 (dLV/dLT)p        1.0055   1.0053   1.0052   1.0051   1.0049   1.0048   1.0047   1.0076
 Cp, KJ/(KG)(K)   21.2134  21.1975  21.1824  21.1679  21.1539  21.1407  21.1279  21.4385
 GAMMAs            1.6462   1.6467   1.6472   1.6477   1.6481   1.6486   1.6490   1.6389
 SON VEL,M/SEC     7798.1   7808.1   7818.0   7827.9   7837.7   7847.4   7857.1   7710.4

 TRANSPORT PROPERTIES (GASES ONLY)
   CONDUCTIVITY IN UNITS OF MILLIWATTS/(CM)(K)

 VISC,MILLIPOISE  0.49656  0.49745  0.49833  0.49922  0.50011  0.50100  0.50188  0.48950

  WITH EQUILIBRIUM REACTIONS

 Cp, KJ/(KG)(K)   21.2134  21.1975  21.1824  21.1679  21.1539  21.1407  21.1279  21.4385
 CONDUCTIVITY     15.8618  15.8748  15.8883  15.9023  15.9168  15.9317  15.9470  15.8439
 PRANDTL NUMBER    0.6641   0.6642   0.6644   0.6645   0.6647   0.6648   0.6649   0.6624

  WITH FROZEN REACTIONS

 Cp, KJ/(KG)(K)   20.6220  20.6220  20.6220  20.6221  20.6221  20.6221  20.6222  20.6216
 CONDUCTIVITY     15.3549  15.3826  15.4102  15.4379  15.4655  15.4932  15.5208  15.1340
 PRANDTL NUMBER    0.6669   0.6669   0.6669   0.6669   0.6669   0.6668   0.6668   0.6670

 MASS FRACTIONS

 *H               0.99913  0.99915  0.99918  0.99920  0.99922  0.99924  0.99926  0.99880
 *H+              0.00001  0.00001  0.00001  0.00001  0.00001  0.00001  0.00001  0.00000
 *H2              0.00086  0.00084  0.00082  0.00079  0.00077  0.00075  0.00073  0.00119

  * THERMODYNAMIC PROPERTIES FITTED TO 20000.K

 NOTE. WEIGHT FRACTION OF FUEL IN TOTAL FUELS AND OF OXIDANT IN TOTAL OXIDANTS









               THERMODYNAMIC EQUILIBRIUM PROPERTIES AT ASSIGNED

                           TEMPERATURE AND PRESSURE

 CASE =                

             REACTANT                    WT FRACTION      ENERGY      TEMP
                                          (SEE NOTE)     KJ/KG-MOL      K  
 FUEL        H2                           1.0000000         0.000      0.000
 OXIDANT     H2                           1.0000000         0.000      0.000

 O/F=    1.00000  %FUEL= 50.000000  R,EQ.RATIO= 0.000000  PHI,EQ.RATIO=-1.000000

 THERMODYNAMIC PROPERTIES

 P, BAR           0.00540  0.00540  0.00540  0.00540  0.00540  0.00540  0.00540  0.00540
 T, K             4410.00  4420.00  4430.00  4440.00  4450.00  4460.00  4470.00  4480.00
 RHO, KG/CU M    1.4853-5 1.4819-5 1.4785-5 1.4752-5 1.4718-5 1.4685-5 1.4652-5 1.4619-5
 H, KJ/KG        300818.4 301032.5 301246.2 301459.8 301673.2 301886.3 302099.3 302312.0
 U, KJ/KG        264461.2 264592.2 264722.9 264853.5 264983.8 265114.0 265244.0 265373.8
 G, KJ/KG       -635816.8-637940.9-640065.5-642190.6-644316.2-646442.2-648568.8-650695.8
 S, KJ/(KG)(K)   212.3889 212.4374 212.4857 212.5339 212.5819 212.6297 212.6774 212.7250

 M, (1/n)           1.009    1.009    1.008    1.008    1.008    1.008    1.008    1.008
 (dLV/dLP)t      -1.00058 -1.00056 -1.00055 -1.00053 -1.00052 -1.00051 -1.00049 -1.00048
 (dLV/dLT)p        1.0074   1.0072   1.0070   1.0068   1.0066   1.0064   1.0062   1.0060
 Cp, KJ/(KG)(K)   21.4140  21.3904  21.3678  21.3461  21.3252  21.3052  21.2860  21.2675
 GAMMAs            1.6397   1.6405   1.6412   1.6419   1.6426   1.6433   1.6439   1.6445
 SON VEL,M/SEC     7721.1   7731.7   7742.3   7752.7   7763.1   7773.4   7783.7   7793.9

 TRANSPORT PROPERTIES (GASES ONLY)
   CONDUCTIVITY IN UNITS OF MILLIWATTS/(CM)(K)

 VISC,MILLIPOISE  0.49039  0.49128  0.49217  0.49305  0.49394  0.49483  0.49572  0.49660

  WITH EQUILIBRIUM REACTIONS

 Cp, KJ/(KG)(K)   21.4140  21.3904  21.3678  21.3461  21.3252  21.3052  21.2860  21.2675
 CONDUCTIVITY     15.8501  15.8571  15.8648  15.8732  15.8823  15.8920  15.9023  15.9133
 PRANDTL NUMBER    0.6625   0.6627   0.6629   0.6631   0.6632   0.6634   0.6635   0.6637

  WITH FROZEN REACTIONS

 Cp, KJ/(KG)(K)   20.6216  20.6217  20.6217  20.6217  20.6218  20.6218  20.6219  20.6219
 CONDUCTIVITY     15.1618  15.1895  15.2172  15.2449  15.2726  15.3003  15.3280  15.3556
 PRANDTL NUMBER    0.6670   0.6670   0.6670   0.6670   0.6669   0.6669   0.6669   0.6669

 MASS FRACTIONS

 *H               0.99884  0.99887  0.99890  0.99893  0.99896  0.99899  0.99902  0.99904
 *H+              0.00000  0.00000  0.00001  0.00001  0.00001  0.00001  0.00001  0.00001
 *H2              0.00116  0.00113  0.00109  0.00106  0.00103  0.00101  0.00098  0.00095

  * THERMODYNAMIC PROPERTIES FITTED TO 20000.K

 NOTE. WEIGHT FRACTION OF FUEL IN TOTAL FUELS AND OF OXIDANT IN TOTAL OXIDANTS









               THERMODYNAMIC EQUILIBRIUM PROPERTIES AT ASSIGNED

                           TEMPERATURE AND PRESSURE

 CASE =                

             REACTANT                    WT FRACTION      ENERGY      TEMP
                                          (SEE NOTE)     KJ/KG-MOL      K  
 FUEL        H2                           1.0000000         0.000      0.000
 OXIDANT     H2                           1.0000000         0.000      0.000

 O/F=    1.00000  %FUEL= 50.000000  R,EQ.RATIO= 0.000000  PHI,EQ.RATIO=-1.000000

 THERMODYNAMIC PROPERTIES

 P, BAR           0.00540  0.00540  0.00540  0.00540  0.00540  0.00540  0.00600  0.00600
 T, K             4490.00  4500.00  4510.00  4520.00  4530.00  4540.00  4400.00  4410.00
 RHO, KG/CU M    1.4586-5 1.4554-5 1.4521-5 1.4489-5 1.4457-5 1.4425-5 1.6542-5 1.6504-5
 H, KJ/KG        302524.6 302737.0 302949.3 303161.4 303373.3 303585.1 300573.4 300788.5
 U, KJ/KG        265503.4 265632.9 265762.2 265891.4 266020.5 266149.4 264301.6 264433.6
 G, KJ/KG       -652823.3-654951.2-657079.7-659208.6-661337.9-663467.8-629871.4-631986.3
 S, KJ/(KG)(K)   212.7724 212.8196 212.8667 212.9137 212.9605 213.0072 211.4647 211.5136

 M, (1/n)           1.008    1.008    1.008    1.008    1.008    1.008    1.009    1.009
 (dLV/dLP)t      -1.00047 -1.00045 -1.00044 -1.00043 -1.00042 -1.00041 -1.00066 -1.00064
 (dLV/dLT)p        1.0059   1.0057   1.0055   1.0054   1.0053   1.0051   1.0085   1.0082
 Cp, KJ/(KG)(K)   21.2499  21.2329  21.2167  21.2011  21.1862  21.1719  21.5243  21.4969
 GAMMAs            1.6451   1.6456   1.6461   1.6466   1.6471   1.6476   1.6362   1.6371
 SON VEL,M/SEC     7804.0   7814.0   7824.0   7833.9   7843.8   7853.6   7703.8   7714.7

 TRANSPORT PROPERTIES (GASES ONLY)
   CONDUCTIVITY IN UNITS OF MILLIWATTS/(CM)(K)

 VISC,MILLIPOISE  0.49749  0.49838  0.49926  0.50015  0.50104  0.50192  0.48957  0.49046

  WITH EQUILIBRIUM REACTIONS

 Cp, KJ/(KG)(K)   21.2499  21.2329  21.2167  21.2011  21.1862  21.1719  21.5243  21.4969
 CONDUCTIVITY     15.9247  15.9368  15.9494  15.9624  15.9760  15.9900  15.9230  15.9268
 PRANDTL NUMBER    0.6638   0.6640   0.6641   0.6643   0.6644   0.6646   0.6618   0.6620

  WITH FROZEN REACTIONS

 Cp, KJ/(KG)(K)   20.6219  20.6220  20.6220  20.6220  20.6221  20.6221  20.6215  20.6215
 CONDUCTIVITY     15.3833  15.4109  15.4386  15.4662  15.4938  15.5214  15.1351  15.1628
 PRANDTL NUMBER    0.6669   0.6669   0.6669   0.6669   0.6669   0.6669   0.6670   0.6670

 MASS FRACTIONS

 *H               0.99907  0.99909  0.99912  0.99914  0.99916  0.99919  0.99867  0.99871
 *H+              0.00001  0.00001  0.00001  0.00001  0.00001  0.00001  0.00000  0.00000
 *H2              0.00092  0.00090  0.00088  0.00085  0.00083  0.00081  0.00132  0.00129

  * THERMODYNAMIC PROPERTIES FITTED TO 20000.K

 NOTE. WEIGHT FRACTION OF FUEL IN TOTAL FUELS AND OF OXIDANT IN TOTAL OXIDANTS









               THERMODYNAMIC EQUILIBRIUM PROPERTIES AT ASSIGNED

                           TEMPERATURE AND PRESSURE

 CASE =                

             REACTANT                    WT FRACTION      ENERGY      TEMP
                                          (SEE NOTE)     KJ/KG-MOL      K  
 FUEL        H2                           1.0000000         0.000      0.000
 OXIDANT     H2                           1.0000000         0.000      0.000

 O/F=    1.00000  %FUEL= 50.000000  R,EQ.RATIO= 0.000000  PHI,EQ.RATIO=-1.000000

 THERMODYNAMIC PROPERTIES

 P, BAR           0.00600  0.00600  0.00600  0.00600  0.00600  0.00600  0.00600  0.00600
 T, K             4420.00  4430.00  4440.00  4450.00  4460.00  4470.00  4480.00  4490.00
 RHO, KG/CU M    1.6466-5 1.6429-5 1.6392-5 1.6354-5 1.6318-5 1.6281-5 1.6244-5 1.6208-5
 H, KJ/KG        301003.4 301217.9 301432.3 301646.4 301860.2 302073.9 302287.3 302500.5
 U, KJ/KG        264565.4 264696.8 264828.1 264959.1 265090.0 265220.6 265351.0 265481.2
 G, KJ/KG       -634101.6-636217.5-638333.9-640450.7-642568.0-644685.8-646804.1-648922.8
 S, KJ/(KG)(K)   211.5622 211.6107 211.6590 211.7072 211.7552 211.8031 211.8507 211.8983

 M, (1/n)           1.009    1.009    1.009    1.009    1.008    1.008    1.008    1.008
 (dLV/dLP)t      -1.00063 -1.00061 -1.00059 -1.00058 -1.00056 -1.00055 -1.00053 -1.00052
 (dLV/dLT)p        1.0080   1.0077   1.0075   1.0073   1.0071   1.0069   1.0067   1.0065
 Cp, KJ/(KG)(K)   21.4705  21.4452  21.4209  21.3975  21.3751  21.3535  21.3328  21.3129
 GAMMAs            1.6380   1.6388   1.6396   1.6403   1.6410   1.6417   1.6424   1.6430
 SON VEL,M/SEC     7725.5   7736.3   7746.9   7757.5   7768.0   7778.4   7788.7   7799.0

 TRANSPORT PROPERTIES (GASES ONLY)
   CONDUCTIVITY IN UNITS OF MILLIWATTS/(CM)(K)

 VISC,MILLIPOISE  0.49134  0.49223  0.49312  0.49400  0.49489  0.49577  0.49666  0.49755

  WITH EQUILIBRIUM REACTIONS

 Cp, KJ/(KG)(K)   21.4705  21.4452  21.4209  21.3975  21.3751  21.3535  21.3328  21.3129
 CONDUCTIVITY     15.9314  15.9369  15.9431  15.9500  15.9577  15.9661  15.9751  15.9847
 PRANDTL NUMBER    0.6622   0.6624   0.6625   0.6627   0.6629   0.6631   0.6632   0.6634

  WITH FROZEN REACTIONS

 Cp, KJ/(KG)(K)   20.6216  20.6216  20.6216  20.6217  20.6217  20.6218  20.6218  20.6218
 CONDUCTIVITY     15.1905  15.2182  15.2459  15.2736  15.3012  15.3289  15.3565  15.3842
 PRANDTL NUMBER    0.6670   0.6670   0.6670   0.6670   0.6670   0.6670   0.6669   0.6669

 MASS FRACTIONS

 *H               0.99874  0.99878  0.99881  0.99885  0.99888  0.99891  0.99894  0.99897
 *H+              0.00000  0.00000  0.00001  0.00001  0.00001  0.00001  0.00001  0.00001
 *H2              0.00125  0.00122  0.00118  0.00115  0.00112  0.00109  0.00106  0.00103

  * THERMODYNAMIC PROPERTIES FITTED TO 20000.K

 NOTE. WEIGHT FRACTION OF FUEL IN TOTAL FUELS AND OF OXIDANT IN TOTAL OXIDANTS









               THERMODYNAMIC EQUILIBRIUM PROPERTIES AT ASSIGNED

                           TEMPERATURE AND PRESSURE

 CASE =                

             REACTANT                    WT FRACTION      ENERGY      TEMP
                                          (SEE NOTE)     KJ/KG-MOL      K  
 FUEL        H2                           1.0000000         0.000      0.000
 OXIDANT     H2                           1.0000000         0.000      0.000

 O/F=    1.00000  %FUEL= 50.000000  R,EQ.RATIO= 0.000000  PHI,EQ.RATIO=-1.000000

 THERMODYNAMIC PROPERTIES

 P, BAR           0.00600  0.00600  0.00600  0.00600  0.00600  0.00670  0.00670  0.00670
 T, K             4500.00  4510.00  4520.00  4530.00  4540.00  4400.00  4410.00  4420.00
 RHO, KG/CU M    1.6172-5 1.6135-5 1.6100-5 1.6064-5 1.6028-5 1.8473-5 1.8431-5 1.8389-5
 H, KJ/KG        302713.6 302926.4 303139.1 303351.6 303563.9 300537.6 300753.7 300969.5
 U, KJ/KG        265611.3 265741.2 265870.9 266000.5 266129.9 264268.6 264401.5 264534.2
 G, KJ/KG       -651042.0-653161.7-655281.9-657402.5-659523.6-625869.0-627974.7-630080.9
 S, KJ/(KG)(K)   211.9457 211.9929 212.0400 212.0870 212.1338 210.5470 210.5960 210.6449

 M, (1/n)           1.008    1.008    1.008    1.008    1.008    1.009    1.009    1.009
 (dLV/dLP)t      -1.00050 -1.00049 -1.00048 -1.00046 -1.00045 -1.00074 -1.00072 -1.00070
 (dLV/dLT)p        1.0063   1.0061   1.0060   1.0058   1.0057   1.0094   1.0092   1.0089
 Cp, KJ/(KG)(K)   21.2939  21.2756  21.2580  21.2412  21.2251  21.6245  21.5938  21.5642
 GAMMAs            1.6437   1.6443   1.6448   1.6454   1.6459   1.6331   1.6341   1.6350
 SON VEL,M/SEC     7809.2   7819.3   7829.4   7839.4   7849.3   7696.2   7707.3   7718.4

 TRANSPORT PROPERTIES (GASES ONLY)
   CONDUCTIVITY IN UNITS OF MILLIWATTS/(CM)(K)

 VISC,MILLIPOISE  0.49843  0.49932  0.50020  0.50109  0.50197  0.48965  0.49053  0.49142

  WITH EQUILIBRIUM REACTIONS

 Cp, KJ/(KG)(K)   21.2939  21.2756  21.2580  21.2412  21.2251  21.6245  21.5938  21.5642
 CONDUCTIVITY     15.9950  16.0058  16.0172  16.0292  16.0416  16.0152  16.0162  16.0181
 PRANDTL NUMBER    0.6636   0.6637   0.6639   0.6640   0.6642   0.6612   0.6614   0.6616

  WITH FROZEN REACTIONS

 Cp, KJ/(KG)(K)   20.6219  20.6219  20.6219  20.6220  20.6220  20.6213  20.6214  20.6214
 CONDUCTIVITY     15.4118  15.4394  15.4670  15.4946  15.5222  15.1364  15.1641  15.1917
 PRANDTL NUMBER    0.6669   0.6669   0.6669   0.6669   0.6669   0.6671   0.6671   0.6671

 MASS FRACTIONS

 *H               0.99899  0.99902  0.99905  0.99907  0.99910  0.99852  0.99856  0.99860
 *H+              0.00001  0.00001  0.00001  0.00001  0.00001  0.00000  0.00000  0.00000
 *H2              0.00100  0.00097  0.00095  0.00092  0.00090  0.00148  0.00144  0.00140

  * THERMODYNAMIC PROPERTIES FITTED TO 20000.K

 NOTE. WEIGHT FRACTION OF FUEL IN TOTAL FUELS AND OF OXIDANT IN TOTAL OXIDANTS









               THERMODYNAMIC EQUILIBRIUM PROPERTIES AT ASSIGNED

                           TEMPERATURE AND PRESSURE

 CASE =                

             REACTANT                    WT FRACTION      ENERGY      TEMP
                                          (SEE NOTE)     KJ/KG-MOL      K  
 FUEL        H2                           1.0000000         0.000      0.000
 OXIDANT     H2                           1.0000000         0.000      0.000

 O/F=    1.00000  %FUEL= 50.000000  R,EQ.RATIO= 0.000000  PHI,EQ.RATIO=-1.000000

 THERMODYNAMIC PROPERTIES

 P, BAR           0.00670  0.00670  0.00670  0.00670  0.00670  0.00670  0.00670  0.00670
 T, K             4430.00  4440.00  4450.00  4460.00  4470.00  4480.00  4490.00  4500.00
 RHO, KG/CU M    1.8347-5 1.8305-5 1.8264-5 1.8222-5 1.8181-5 1.8140-5 1.8100-5 1.8059-5
 H, KJ/KG        301185.0 301400.2 301615.2 301829.9 302044.3 302258.5 302472.5 302686.3
 U, KJ/KG        264666.5 264798.6 264930.4 265062.0 265193.4 265324.5 265455.5 265586.2
 G, KJ/KG       -632187.6-634294.8-636402.5-638510.6-640619.2-642728.3-644837.9-646948.0
 S, KJ/(KG)(K)   210.6936 210.7421 210.7905 210.8387 210.8867 210.9346 210.9823 211.0298

 M, (1/n)           1.009    1.009    1.009    1.009    1.009    1.009    1.009    1.008
 (dLV/dLP)t      -1.00068 -1.00066 -1.00064 -1.00063 -1.00061 -1.00059 -1.00058 -1.00056
 (dLV/dLT)p        1.0086   1.0084   1.0081   1.0079   1.0077   1.0074   1.0072   1.0070
 Cp, KJ/(KG)(K)   21.5357  21.5084  21.4821  21.4568  21.4326  21.4092  21.3868  21.3653
 GAMMAs            1.6359   1.6368   1.6377   1.6385   1.6392   1.6400   1.6407   1.6414
 SON VEL,M/SEC     7729.3   7740.2   7750.9   7761.6   7772.2   7782.8   7793.2   7803.6

 TRANSPORT PROPERTIES (GASES ONLY)
   CONDUCTIVITY IN UNITS OF MILLIWATTS/(CM)(K)

 VISC,MILLIPOISE  0.49230  0.49319  0.49407  0.49496  0.49584  0.49672  0.49761  0.49849

  WITH EQUILIBRIUM REACTIONS

 Cp, KJ/(KG)(K)   21.5357  21.5084  21.4821  21.4568  21.4326  21.4092  21.3868  21.3653
 CONDUCTIVITY     16.0209  16.0245  16.0290  16.0343  16.0404  16.0472  16.0547  16.0628
 PRANDTL NUMBER    0.6618   0.6620   0.6622   0.6623   0.6625   0.6627   0.6629   0.6630

  WITH FROZEN REACTIONS

 Cp, KJ/(KG)(K)   20.6215  20.6215  20.6216  20.6216  20.6217  20.6217  20.6217  20.6218
 CONDUCTIVITY     15.2194  15.2470  15.2747  15.3023  15.3299  15.3576  15.3852  15.4128
 PRANDTL NUMBER    0.6670   0.6670   0.6670   0.6670   0.6670   0.6670   0.6670   0.6670

 MASS FRACTIONS

 *H               0.99864  0.99868  0.99871  0.99875  0.99878  0.99881  0.99885  0.99888
 *H+              0.00000  0.00000  0.00001  0.00001  0.00001  0.00001  0.00001  0.00001
 *H2              0.00136  0.00132  0.00128  0.00125  0.00121  0.00118  0.00115  0.00112

  * THERMODYNAMIC PROPERTIES FITTED TO 20000.K

 NOTE. WEIGHT FRACTION OF FUEL IN TOTAL FUELS AND OF OXIDANT IN TOTAL OXIDANTS









               THERMODYNAMIC EQUILIBRIUM PROPERTIES AT ASSIGNED

                           TEMPERATURE AND PRESSURE

 CASE =                

             REACTANT                    WT FRACTION      ENERGY      TEMP
                                          (SEE NOTE)     KJ/KG-MOL      K  
 FUEL        H2                           1.0000000         0.000      0.000
 OXIDANT     H2                           1.0000000         0.000      0.000

 O/F=    1.00000  %FUEL= 50.000000  R,EQ.RATIO= 0.000000  PHI,EQ.RATIO=-1.000000

 THERMODYNAMIC PROPERTIES

 P, BAR           0.00670  0.00670  0.00670  0.00670  0.00740  0.00740  0.00740  0.00740
 T, K             4510.00  4520.00  4530.00  4540.00  4400.00  4410.00  4420.00  4430.00
 RHO, KG/CU M    1.8019-5 1.7979-5 1.7939-5 1.7899-5 2.0405-5 2.0358-5 2.0311-5 2.0265-5
 H, KJ/KG        302899.8 303113.2 303326.3 303539.3 300501.9 300719.0 300935.7 301152.1
 U, KJ/KG        265716.7 265847.1 265977.2 266107.2 264235.7 264369.5 264503.0 264636.2
 G, KJ/KG       -649058.5-651169.5-653281.0-655393.0-622265.0-624362.4-626460.4-628558.8
 S, KJ/(KG)(K)   211.0772 211.1245 211.1716 211.2186 209.7197 209.7690 209.8181 209.8670

 M, (1/n)           1.008    1.008    1.008    1.008    1.009    1.009    1.009    1.009
 (dLV/dLP)t      -1.00055 -1.00053 -1.00052 -1.00050 -1.00082 -1.00079 -1.00077 -1.00075
 (dLV/dLT)p        1.0068   1.0066   1.0065   1.0063   1.0104   1.0101   1.0098   1.0095
 Cp, KJ/(KG)(K)   21.3447  21.3248  21.3058  21.2875  21.7249  21.6908  21.6580  21.6264
 GAMMAs            1.6421   1.6427   1.6433   1.6439   1.6300   1.6311   1.6321   1.6331
 SON VEL,M/SEC     7813.9   7824.1   7834.3   7844.4   7688.6   7700.0   7711.2   7722.4

 TRANSPORT PROPERTIES (GASES ONLY)
   CONDUCTIVITY IN UNITS OF MILLIWATTS/(CM)(K)

 VISC,MILLIPOISE  0.49938  0.50026  0.50114  0.50203  0.48973  0.49061  0.49149  0.49237

  WITH EQUILIBRIUM REACTIONS

 Cp, KJ/(KG)(K)   21.3447  21.3248  21.3058  21.2875  21.7249  21.6908  21.6579  21.6264
 CONDUCTIVITY     16.0717  16.0811  16.0912  16.1019  16.1073  16.1055  16.1047  16.1049
 PRANDTL NUMBER    0.6632   0.6634   0.6635   0.6637   0.6605   0.6607   0.6610   0.6612

  WITH FROZEN REACTIONS

 Cp, KJ/(KG)(K)   20.6218  20.6219  20.6219  20.6219  20.6212  20.6212  20.6213  20.6213
 CONDUCTIVITY     15.4404  15.4679  15.4955  15.5231  15.1377  15.1653  15.1929  15.2206
 PRANDTL NUMBER    0.6670   0.6669   0.6669   0.6669   0.6671   0.6671   0.6671   0.6671

 MASS FRACTIONS

 *H               0.99891  0.99894  0.99896  0.99899  0.99836  0.99841  0.99845  0.99850
 *H+              0.00001  0.00001  0.00001  0.00001  0.00000  0.00000  0.00000  0.00000
 *H2              0.00109  0.00106  0.00103  0.00100  0.00163  0.00159  0.00154  0.00150

  * THERMODYNAMIC PROPERTIES FITTED TO 20000.K

 NOTE. WEIGHT FRACTION OF FUEL IN TOTAL FUELS AND OF OXIDANT IN TOTAL OXIDANTS









               THERMODYNAMIC EQUILIBRIUM PROPERTIES AT ASSIGNED

                           TEMPERATURE AND PRESSURE

 CASE =                

             REACTANT                    WT FRACTION      ENERGY      TEMP
                                          (SEE NOTE)     KJ/KG-MOL      K  
 FUEL        H2                           1.0000000         0.000      0.000
 OXIDANT     H2                           1.0000000         0.000      0.000

 O/F=    1.00000  %FUEL= 50.000000  R,EQ.RATIO= 0.000000  PHI,EQ.RATIO=-1.000000

 THERMODYNAMIC PROPERTIES

 P, BAR           0.00740  0.00740  0.00740  0.00740  0.00740  0.00740  0.00740  0.00740
 T, K             4440.00  4450.00  4460.00  4470.00  4480.00  4490.00  4500.00  4510.00
 RHO, KG/CU M    2.0219-5 2.0173-5 2.0128-5 2.0082-5 2.0037-5 1.9992-5 1.9947-5 1.9903-5
 H, KJ/KG        301368.2 301584.1 301799.6 302014.8 302229.8 302444.6 302659.0 302873.3
 U, KJ/KG        264769.1 264901.8 265034.1 265166.2 265298.1 265429.7 265561.1 265692.3
 G, KJ/KG       -630657.7-632757.1-634857.0-636957.4-639058.2-641159.6-643261.4-645363.6
 S, KJ/(KG)(K)   209.9158 209.9643 210.0127 210.0609 210.1089 210.1568 210.2045 210.2521

 M, (1/n)           1.009    1.009    1.009    1.009    1.009    1.009    1.009    1.009
 (dLV/dLP)t      -1.00073 -1.00071 -1.00069 -1.00067 -1.00065 -1.00064 -1.00062 -1.00060
 (dLV/dLT)p        1.0092   1.0090   1.0087   1.0084   1.0082   1.0080   1.0077   1.0075
 Cp, KJ/(KG)(K)   21.5960  21.5669  21.5388  21.5118  21.4859  21.4610  21.4370  21.4140
 GAMMAs            1.6341   1.6350   1.6359   1.6368   1.6376   1.6384   1.6392   1.6399
 SON VEL,M/SEC     7733.5   7744.4   7755.3   7766.1   7776.8   7787.5   7798.0   7808.5

 TRANSPORT PROPERTIES (GASES ONLY)
   CONDUCTIVITY IN UNITS OF MILLIWATTS/(CM)(K)

 VISC,MILLIPOISE  0.49326  0.49414  0.49502  0.49590  0.49679  0.49767  0.49855  0.49944

  WITH EQUILIBRIUM REACTIONS

 Cp, KJ/(KG)(K)   21.5960  21.5669  21.5388  21.5118  21.4859  21.4610  21.4370  21.4140
 CONDUCTIVITY     16.1060  16.1080  16.1109  16.1147  16.1193  16.1246  16.1307  16.1376
 PRANDTL NUMBER    0.6614   0.6616   0.6618   0.6620   0.6622   0.6624   0.6626   0.6627

  WITH FROZEN REACTIONS

 Cp, KJ/(KG)(K)   20.6214  20.6214  20.6215  20.6215  20.6216  20.6216  20.6217  20.6217
 CONDUCTIVITY     15.2482  15.2758  15.3034  15.3310  15.3586  15.3862  15.4137  15.4413
 PRANDTL NUMBER    0.6671   0.6671   0.6670   0.6670   0.6670   0.6670   0.6670   0.6670

 MASS FRACTIONS

 *H               0.99854  0.99858  0.99862  0.99866  0.99869  0.99873  0.99876  0.99879
 *H+              0.00000  0.00000  0.00001  0.00001  0.00001  0.00001  0.00001  0.00001
 *H2              0.00146  0.00142  0.00138  0.00134  0.00130  0.00127  0.00123  0.00120

  * THERMODYNAMIC PROPERTIES FITTED TO 20000.K

 NOTE. WEIGHT FRACTION OF FUEL IN TOTAL FUELS AND OF OXIDANT IN TOTAL OXIDANTS









               THERMODYNAMIC EQUILIBRIUM PROPERTIES AT ASSIGNED

                           TEMPERATURE AND PRESSURE

 CASE =                

             REACTANT                    WT FRACTION      ENERGY      TEMP
                                          (SEE NOTE)     KJ/KG-MOL      K  
 FUEL        H2                           1.0000000         0.000      0.000
 OXIDANT     H2                           1.0000000         0.000      0.000

 O/F=    1.00000  %FUEL= 50.000000  R,EQ.RATIO= 0.000000  PHI,EQ.RATIO=-1.000000

 THERMODYNAMIC PROPERTIES

 P, BAR           0.00740  0.00740  0.00740  0.00825  0.00825  0.00825  0.00825  0.00825
 T, K             4520.00  4530.00  4540.00  4400.00  4410.00  4420.00  4430.00  4440.00
 RHO, KG/CU M    1.9858-5 1.9814-5 1.9770-5 2.2751-5 2.2698-5 2.2647-5 2.2595-5 2.2543-5
 H, KJ/KG        303087.3 303301.1 303514.7 300458.6 300676.8 300894.7 301112.3 301329.5
 U, KJ/KG        265823.3 265954.1 266084.7 264195.8 264330.7 264465.3 264599.5 264733.4
 G, KJ/KG       -647466.4-649569.6-651673.3-618321.8-620410.2-622499.1-624588.5-626678.3
 S, KJ/(KG)(K)   210.2995 210.3467 210.3938 208.8137 208.8633 208.9126 208.9618 209.0108

 M, (1/n)           1.009    1.009    1.008    1.009    1.009    1.009    1.009    1.009
 (dLV/dLP)t      -1.00059 -1.00057 -1.00056 -1.00091 -1.00088 -1.00086 -1.00084 -1.00081
 (dLV/dLT)p        1.0073   1.0071   1.0069   1.0116   1.0112   1.0109   1.0106   1.0103
 Cp, KJ/(KG)(K)   21.3919  21.3706  21.3502  21.8468  21.8087  21.7720  21.7366  21.7027
 GAMMAs            1.6406   1.6413   1.6419   1.6263   1.6275   1.6287   1.6298   1.6308
 SON VEL,M/SEC     7818.9   7829.2   7839.5   7679.6   7691.2   7702.7   7714.1   7725.4

 TRANSPORT PROPERTIES (GASES ONLY)
   CONDUCTIVITY IN UNITS OF MILLIWATTS/(CM)(K)

 VISC,MILLIPOISE  0.50032  0.50120  0.50208  0.48982  0.49070  0.49158  0.49246  0.49334

  WITH EQUILIBRIUM REACTIONS

 Cp, KJ/(KG)(K)   21.3919  21.3706  21.3502  21.8468  21.8087  21.7720  21.7366  21.7027
 CONDUCTIVITY     16.1451  16.1533  16.1621  16.2192  16.2139  16.2098  16.2068  16.2048
 PRANDTL NUMBER    0.6629   0.6631   0.6633   0.6598   0.6600   0.6603   0.6605   0.6607

  WITH FROZEN REACTIONS

 Cp, KJ/(KG)(K)   20.6218  20.6218  20.6218  20.6210  20.6211  20.6211  20.6212  20.6213
 CONDUCTIVITY     15.4689  15.4964  15.5240  15.1392  15.1668  15.1944  15.2220  15.2496
 PRANDTL NUMBER    0.6670   0.6670   0.6670   0.6672   0.6672   0.6672   0.6671   0.6671

 MASS FRACTIONS

 *H               0.99883  0.99886  0.99889  0.99818  0.99823  0.99828  0.99833  0.99837
 *H+              0.00001  0.00001  0.00001  0.00000  0.00000  0.00000  0.00000  0.00000
 *H2              0.00117  0.00114  0.00110  0.00182  0.00177  0.00172  0.00167  0.00162

  * THERMODYNAMIC PROPERTIES FITTED TO 20000.K

 NOTE. WEIGHT FRACTION OF FUEL IN TOTAL FUELS AND OF OXIDANT IN TOTAL OXIDANTS









               THERMODYNAMIC EQUILIBRIUM PROPERTIES AT ASSIGNED

                           TEMPERATURE AND PRESSURE

 CASE =                

             REACTANT                    WT FRACTION      ENERGY      TEMP
                                          (SEE NOTE)     KJ/KG-MOL      K  
 FUEL        H2                           1.0000000         0.000      0.000
 OXIDANT     H2                           1.0000000         0.000      0.000

 O/F=    1.00000  %FUEL= 50.000000  R,EQ.RATIO= 0.000000  PHI,EQ.RATIO=-1.000000

 THERMODYNAMIC PROPERTIES

 P, BAR           0.00825  0.00825  0.00825  0.00825  0.00825  0.00825  0.00825  0.00825
 T, K             4450.00  4460.00  4470.00  4480.00  4490.00  4500.00  4510.00  4520.00
 RHO, KG/CU M    2.2492-5 2.2441-5 2.2391-5 2.2340-5 2.2290-5 2.2240-5 2.2190-5 2.2141-5
 H, KJ/KG        301546.3 301762.9 301979.1 302195.1 302410.7 302626.1 302841.2 303056.1
 U, KJ/KG        264867.0 265000.3 265133.4 265266.1 265398.6 265530.8 265662.8 265794.5
 G, KJ/KG       -628768.7-630859.5-632950.9-635042.7-637135.0-639227.7-641321.0-643414.7
 S, KJ/(KG)(K)   209.0596 209.1082 209.1566 209.2048 209.2529 209.3008 209.3486 209.3962

 M, (1/n)           1.009    1.009    1.009    1.009    1.009    1.009    1.009    1.009
 (dLV/dLP)t      -1.00079 -1.00077 -1.00075 -1.00073 -1.00071 -1.00069 -1.00067 -1.00065
 (dLV/dLT)p        1.0100   1.0097   1.0094   1.0091   1.0089   1.0086   1.0084   1.0081
 Cp, KJ/(KG)(K)   21.6700  21.6385  21.6083  21.5792  21.5512  21.5243  21.4984  21.4736
 GAMMAs            1.6318   1.6328   1.6338   1.6347   1.6356   1.6364   1.6373   1.6381
 SON VEL,M/SEC     7736.6   7747.7   7758.7   7769.7   7780.5   7791.3   7802.0   7812.6

 TRANSPORT PROPERTIES (GASES ONLY)
   CONDUCTIVITY IN UNITS OF MILLIWATTS/(CM)(K)

 VISC,MILLIPOISE  0.49422  0.49510  0.49598  0.49686  0.49775  0.49863  0.49951  0.50039

  WITH EQUILIBRIUM REACTIONS

 Cp, KJ/(KG)(K)   21.6700  21.6385  21.6083  21.5792  21.5512  21.5243  21.4984  21.4736
 CONDUCTIVITY     16.2039  16.2040  16.2049  16.2068  16.2096  16.2132  16.2176  16.2227
 PRANDTL NUMBER    0.6609   0.6612   0.6614   0.6616   0.6618   0.6620   0.6622   0.6623

  WITH FROZEN REACTIONS

 Cp, KJ/(KG)(K)   20.6213  20.6214  20.6214  20.6215  20.6215  20.6216  20.6216  20.6217
 CONDUCTIVITY     15.2771  15.3047  15.3323  15.3598  15.3874  15.4149  15.4425  15.4700
 PRANDTL NUMBER    0.6671   0.6671   0.6671   0.6671   0.6671   0.6670   0.6670   0.6670

 MASS FRACTIONS

 *H               0.99842  0.99846  0.99850  0.99854  0.99858  0.99862  0.99866  0.99869
 *H+              0.00000  0.00000  0.00001  0.00001  0.00001  0.00001  0.00001  0.00001
 *H2              0.00158  0.00153  0.00149  0.00145  0.00141  0.00137  0.00134  0.00130

  * THERMODYNAMIC PROPERTIES FITTED TO 20000.K

 NOTE. WEIGHT FRACTION OF FUEL IN TOTAL FUELS AND OF OXIDANT IN TOTAL OXIDANTS









               THERMODYNAMIC EQUILIBRIUM PROPERTIES AT ASSIGNED

                           TEMPERATURE AND PRESSURE

 CASE =                

             REACTANT                    WT FRACTION      ENERGY      TEMP
                                          (SEE NOTE)     KJ/KG-MOL      K  
 FUEL        H2                           1.0000000         0.000      0.000
 OXIDANT     H2                           1.0000000         0.000      0.000

 O/F=    1.00000  %FUEL= 50.000000  R,EQ.RATIO= 0.000000  PHI,EQ.RATIO=-1.000000

 THERMODYNAMIC PROPERTIES

 P, BAR           0.00825  0.00825  0.00910  0.00910  0.00910  0.00910  0.00910  0.00910
 T, K             4530.00  4540.00  4400.00  4410.00  4420.00  4430.00  4440.00  4450.00
 RHO, KG/CU M    2.2092-5 2.2042-5 2.5097-5 2.5039-5 2.4982-5 2.4925-5 2.4868-5 2.4812-5
 H, KJ/KG        303270.7 303485.1 300415.3 300634.8 300853.9 301072.5 301290.8 301508.7
 U, KJ/KG        265926.0 266057.3 264155.9 264292.0 264427.6 264562.9 264697.8 264832.4
 G, KJ/KG       -645508.9-647603.6-614766.0-616846.2-618926.9-621008.1-623089.8-625172.0
 S, KJ/(KG)(K)   209.4436 209.4909 207.9958 208.0456 208.0952 208.1446 208.1938 208.2429

 M, (1/n)           1.009    1.009    1.009    1.009    1.009    1.009    1.009    1.009
 (dLV/dLP)t      -1.00064 -1.00062 -1.00100 -1.00097 -1.00095 -1.00092 -1.00090 -1.00087
 (dLV/dLT)p        1.0079   1.0077   1.0128   1.0124   1.0120   1.0117   1.0113   1.0110
 Cp, KJ/(KG)(K)   21.4496  21.4266  21.9688  21.9266  21.8860  21.8470  21.8094  21.7732
 GAMMAs            1.6388   1.6395   1.6227   1.6240   1.6252   1.6264   1.6276   1.6287
 SON VEL,M/SEC     7823.1   7833.5   7670.6   7682.5   7694.2   7705.9   7717.4   7728.9

 TRANSPORT PROPERTIES (GASES ONLY)
   CONDUCTIVITY IN UNITS OF MILLIWATTS/(CM)(K)

 VISC,MILLIPOISE  0.50127  0.50215  0.48992  0.49079  0.49167  0.49255  0.49343  0.49431

  WITH EQUILIBRIUM REACTIONS

 Cp, KJ/(KG)(K)   21.4496  21.4266  21.9688  21.9266  21.8860  21.8470  21.8094  21.7732
 CONDUCTIVITY     16.2287  16.2353  16.3309  16.3223  16.3149  16.3087  16.3037  16.2997
 PRANDTL NUMBER    0.6625   0.6627   0.6590   0.6593   0.6596   0.6598   0.6601   0.6603

  WITH FROZEN REACTIONS

 Cp, KJ/(KG)(K)   20.6217  20.6217  20.6208  20.6209  20.6210  20.6210  20.6211  20.6212
 CONDUCTIVITY     15.4975  15.5250  15.1407  15.1683  15.1959  15.2234  15.2510  15.2785
 PRANDTL NUMBER    0.6670   0.6670   0.6672   0.6672   0.6672   0.6672   0.6672   0.6672

 MASS FRACTIONS

 *H               0.99873  0.99876  0.99799  0.99805  0.99810  0.99815  0.99821  0.99826
 *H+              0.00001  0.00001  0.00000  0.00000  0.00000  0.00000  0.00000  0.00000
 *H2              0.00127  0.00123  0.00201  0.00195  0.00189  0.00184  0.00179  0.00174

  * THERMODYNAMIC PROPERTIES FITTED TO 20000.K

 NOTE. WEIGHT FRACTION OF FUEL IN TOTAL FUELS AND OF OXIDANT IN TOTAL OXIDANTS









               THERMODYNAMIC EQUILIBRIUM PROPERTIES AT ASSIGNED

                           TEMPERATURE AND PRESSURE

 CASE =                

             REACTANT                    WT FRACTION      ENERGY      TEMP
                                          (SEE NOTE)     KJ/KG-MOL      K  
 FUEL        H2                           1.0000000         0.000      0.000
 OXIDANT     H2                           1.0000000         0.000      0.000

 O/F=    1.00000  %FUEL= 50.000000  R,EQ.RATIO= 0.000000  PHI,EQ.RATIO=-1.000000

 THERMODYNAMIC PROPERTIES

 P, BAR           0.00910  0.00910  0.00910  0.00910  0.00910  0.00910  0.00910  0.00910
 T, K             4460.00  4470.00  4480.00  4490.00  4500.00  4510.00  4520.00  4530.00
 RHO, KG/CU M    2.4755-5 2.4699-5 2.4644-5 2.4588-5 2.4533-5 2.4478-5 2.4424-5 2.4369-5
 H, KJ/KG        301726.3 301943.5 302160.4 302376.9 302593.2 302809.2 303024.9 303240.3
 U, KJ/KG        264966.6 265100.6 265234.2 265367.5 265500.6 265633.3 265765.8 265898.1
 G, KJ/KG       -627254.7-629337.9-631421.5-633505.6-635590.2-637675.3-639760.9-641847.0
 S, KJ/(KG)(K)   208.2917 208.3403 208.3888 208.4371 208.4852 208.5332 208.5809 208.6285

 M, (1/n)           1.009    1.009    1.009    1.009    1.009    1.009    1.009    1.009
 (dLV/dLP)t      -1.00085 -1.00082 -1.00080 -1.00078 -1.00076 -1.00074 -1.00072 -1.00070
 (dLV/dLT)p        1.0107   1.0103   1.0100   1.0098   1.0095   1.0092   1.0090   1.0087
 Cp, KJ/(KG)(K)   21.7384  21.7049  21.6727  21.6417  21.6118  21.5831  21.5555  21.5289
 GAMMAs            1.6298   1.6308   1.6318   1.6328   1.6337   1.6346   1.6355   1.6364
 SON VEL,M/SEC     7740.2   7751.4   7762.6   7773.6   7784.6   7795.5   7806.3   7817.0

 TRANSPORT PROPERTIES (GASES ONLY)
   CONDUCTIVITY IN UNITS OF MILLIWATTS/(CM)(K)

 VISC,MILLIPOISE  0.49518  0.49606  0.49694  0.49782  0.49870  0.49958  0.50046  0.50134

  WITH EQUILIBRIUM REACTIONS

 Cp, KJ/(KG)(K)   21.7384  21.7049  21.6727  21.6417  21.6118  21.5831  21.5555  21.5289
 CONDUCTIVITY     16.2969  16.2951  16.2943  16.2945  16.2956  16.2975  16.3004  16.3040
 PRANDTL NUMBER    0.6605   0.6607   0.6610   0.6612   0.6614   0.6616   0.6618   0.6620

  WITH FROZEN REACTIONS

 Cp, KJ/(KG)(K)   20.6212  20.6213  20.6213  20.6214  20.6214  20.6215  20.6215  20.6216
 CONDUCTIVITY     15.3060  15.3336  15.3611  15.3886  15.4161  15.4436  15.4711  15.4986
 PRANDTL NUMBER    0.6671   0.6671   0.6671   0.6671   0.6671   0.6671   0.6671   0.6670

 MASS FRACTIONS

 *H               0.99830  0.99835  0.99839  0.99844  0.99848  0.99852  0.99856  0.99860
 *H+              0.00000  0.00000  0.00000  0.00001  0.00001  0.00001  0.00001  0.00001
 *H2              0.00169  0.00165  0.00160  0.00156  0.00151  0.00147  0.00143  0.00140

  * THERMODYNAMIC PROPERTIES FITTED TO 20000.K

 NOTE. WEIGHT FRACTION OF FUEL IN TOTAL FUELS AND OF OXIDANT IN TOTAL OXIDANTS









               THERMODYNAMIC EQUILIBRIUM PROPERTIES AT ASSIGNED

                           TEMPERATURE AND PRESSURE

 CASE =                

             REACTANT                    WT FRACTION      ENERGY      TEMP
                                          (SEE NOTE)     KJ/KG-MOL      K  
 FUEL        H2                           1.0000000         0.000      0.000
 OXIDANT     H2                           1.0000000         0.000      0.000

 O/F=    1.00000  %FUEL= 50.000000  R,EQ.RATIO= 0.000000  PHI,EQ.RATIO=-1.000000

 THERMODYNAMIC PROPERTIES

 P, BAR           0.00910  0.01000  0.01000  0.01000  0.01000  0.01000  0.01000  0.01000
 T, K             4540.00  4400.00  4410.00  4420.00  4430.00  4440.00  4450.00  4460.00
 RHO, KG/CU M    2.4315-5 2.7582-5 2.7518-5 2.7455-5 2.7393-5 2.7330-5 2.7268-5 2.7206-5
 H, KJ/KG        303455.5 300369.6 300590.3 300810.6 301030.5 301249.9 301468.9 301687.6
 U, KJ/KG        266030.1 264113.8 264251.0 264387.8 264524.2 264660.2 264795.8 264931.0
 G, KJ/KG       -643933.5-611346.6-613418.9-615491.7-617565.1-619638.9-621713.2-623788.0
 S, KJ/(KG)(K)   208.6760 207.2082 207.2583 207.3082 207.3579 207.4074 207.4567 207.5057

 M, (1/n)           1.009    1.009    1.009    1.009    1.009    1.009    1.009    1.009
 (dLV/dLP)t      -1.00068 -1.00110 -1.00107 -1.00104 -1.00101 -1.00098 -1.00096 -1.00093
 (dLV/dLT)p        1.0085   1.0140   1.0136   1.0132   1.0128   1.0124   1.0120   1.0117
 Cp, KJ/(KG)(K)   21.5033  22.0980  22.0515  22.0069  21.9638  21.9224  21.8826  21.8442
 GAMMAs            1.6372   1.6189   1.6203   1.6217   1.6230   1.6242   1.6254   1.6266
 SON VEL,M/SEC     7827.6   7661.3   7673.4   7685.4   7697.3   7709.1   7720.7   7732.3

 TRANSPORT PROPERTIES (GASES ONLY)
   CONDUCTIVITY IN UNITS OF MILLIWATTS/(CM)(K)

 VISC,MILLIPOISE  0.50222  0.49002  0.49089  0.49177  0.49264  0.49352  0.49439  0.49527

  WITH EQUILIBRIUM REACTIONS

 Cp, KJ/(KG)(K)   21.5033  22.0980  22.0515  22.0069  21.9638  21.9224  21.8826  21.8442
 CONDUCTIVITY     16.3085  16.4492  16.4369  16.4260  16.4165  16.4082  16.4012  16.3953
 PRANDTL NUMBER    0.6622   0.6583   0.6586   0.6588   0.6591   0.6594   0.6596   0.6599

  WITH FROZEN REACTIONS

 Cp, KJ/(KG)(K)   20.6216  20.6207  20.6207  20.6208  20.6209  20.6210  20.6210  20.6211
 CONDUCTIVITY     15.5261  15.1424  15.1699  15.1974  15.2249  15.2524  15.2799  15.3074
 PRANDTL NUMBER    0.6670   0.6673   0.6673   0.6673   0.6672   0.6672   0.6672   0.6672

 MASS FRACTIONS

 *H               0.99864  0.99779  0.99785  0.99791  0.99797  0.99803  0.99808  0.99814
 *H+              0.00001  0.00000  0.00000  0.00000  0.00000  0.00000  0.00000  0.00000
 *H2              0.00136  0.00220  0.00214  0.00208  0.00202  0.00197  0.00191  0.00186

  * THERMODYNAMIC PROPERTIES FITTED TO 20000.K

 NOTE. WEIGHT FRACTION OF FUEL IN TOTAL FUELS AND OF OXIDANT IN TOTAL OXIDANTS









               THERMODYNAMIC EQUILIBRIUM PROPERTIES AT ASSIGNED

                           TEMPERATURE AND PRESSURE

 CASE =                

             REACTANT                    WT FRACTION      ENERGY      TEMP
                                          (SEE NOTE)     KJ/KG-MOL      K  
 FUEL        H2                           1.0000000         0.000      0.000
 OXIDANT     H2                           1.0000000         0.000      0.000

 O/F=    1.00000  %FUEL= 50.000000  R,EQ.RATIO= 0.000000  PHI,EQ.RATIO=-1.000000

 THERMODYNAMIC PROPERTIES

 P, BAR           0.01000  0.01000  0.01000  0.01000  0.01000  0.01000  0.01000  0.01000
 T, K             4470.00  4480.00  4490.00  4500.00  4510.00  4520.00  4530.00  4540.00
 RHO, KG/CU M    2.7144-5 2.7083-5 2.7022-5 2.6962-5 2.6901-5 2.6841-5 2.6781-5 2.6722-5
 H, KJ/KG        301905.8 302123.7 302341.3 302558.5 302775.3 302991.9 303208.2 303424.2
 U, KJ/KG        265065.9 265200.4 265334.7 265468.6 265602.2 265735.5 265868.6 266001.4
 G, KJ/KG       -625863.3-627939.1-630015.4-632092.1-634169.4-636247.1-638325.3-640404.0
 S, KJ/(KG)(K)   207.5546 207.6033 207.6518 207.7001 207.7483 207.7962 207.8440 207.8917

 M, (1/n)           1.009    1.009    1.009    1.009    1.009    1.009    1.009    1.009
 (dLV/dLP)t      -1.00090 -1.00088 -1.00086 -1.00083 -1.00081 -1.00079 -1.00077 -1.00075
 (dLV/dLT)p        1.0114   1.0110   1.0107   1.0104   1.0101   1.0098   1.0095   1.0093
 Cp, KJ/(KG)(K)   21.8073  21.7717  21.7375  21.7046  21.6729  21.6424  21.6130  21.5848
 GAMMAs            1.6277   1.6288   1.6299   1.6309   1.6319   1.6329   1.6338   1.6347
 SON VEL,M/SEC     7743.8   7755.1   7766.4   7777.6   7788.7   7799.6   7810.5   7821.4

 TRANSPORT PROPERTIES (GASES ONLY)
   CONDUCTIVITY IN UNITS OF MILLIWATTS/(CM)(K)

 VISC,MILLIPOISE  0.49615  0.49702  0.49790  0.49878  0.49965  0.50053  0.50141  0.50229

  WITH EQUILIBRIUM REACTIONS

 Cp, KJ/(KG)(K)   21.8073  21.7717  21.7375  21.7046  21.6729  21.6424  21.6130  21.5848
 CONDUCTIVITY     16.3906  16.3869  16.3844  16.3828  16.3822  16.3826  16.3838  16.3860
 PRANDTL NUMBER    0.6601   0.6603   0.6606   0.6608   0.6610   0.6612   0.6614   0.6616

  WITH FROZEN REACTIONS

 Cp, KJ/(KG)(K)   20.6211  20.6212  20.6213  20.6213  20.6214  20.6214  20.6215  20.6215
 CONDUCTIVITY     15.3349  15.3624  15.3899  15.4174  15.4449  15.4723  15.4998  15.5273
 PRANDTL NUMBER    0.6672   0.6672   0.6671   0.6671   0.6671   0.6671   0.6671   0.6671

 MASS FRACTIONS

 *H               0.99819  0.99824  0.99828  0.99833  0.99838  0.99842  0.99846  0.99850
 *H+              0.00000  0.00000  0.00000  0.00001  0.00001  0.00001  0.00001  0.00001
 *H2              0.00181  0.00176  0.00171  0.00166  0.00162  0.00158  0.00153  0.00149

  * THERMODYNAMIC PROPERTIES FITTED TO 20000.K

 NOTE. WEIGHT FRACTION OF FUEL IN TOTAL FUELS AND OF OXIDANT IN TOTAL OXIDANTS









               THERMODYNAMIC EQUILIBRIUM PROPERTIES AT ASSIGNED

                           TEMPERATURE AND PRESSURE

 CASE =                

             REACTANT                    WT FRACTION      ENERGY      TEMP
                                          (SEE NOTE)     KJ/KG-MOL      K  
 FUEL        H2                           1.0000000         0.000      0.000
 OXIDANT     H2                           1.0000000         0.000      0.000

 O/F=    1.00000  %FUEL= 50.000000  R,EQ.RATIO= 0.000000  PHI,EQ.RATIO=-1.000000

 THERMODYNAMIC PROPERTIES

 P, BAR           0.01100  0.01100  0.01100  0.01100  0.01100  0.01100  0.01100  0.01100
 T, K             4400.00  4410.00  4420.00  4430.00  4440.00  4450.00  4460.00  4470.00
 RHO, KG/CU M    3.0343-5 3.0273-5 3.0204-5 3.0135-5 3.0066-5 2.9998-5 2.9929-5 2.9862-5
 H, KJ/KG        300318.8 300541.0 300762.6 300983.8 301204.5 301424.8 301644.6 301864.0
 U, KJ/KG        264067.0 264205.6 264343.6 264481.2 264618.4 264755.1 264891.5 265027.4
 G, KJ/KG       -607891.2-609955.6-612020.4-614085.8-616151.7-618218.0-620284.9-622352.3
 S, KJ/(KG)(K)   206.4114 206.4618 206.5120 206.5620 206.6118 206.6613 206.7107 206.7598

 M, (1/n)           1.009    1.009    1.009    1.009    1.009    1.009    1.009    1.009
 (dLV/dLP)t      -1.00121 -1.00118 -1.00114 -1.00111 -1.00108 -1.00105 -1.00102 -1.00099
 (dLV/dLT)p        1.0154   1.0149   1.0145   1.0141   1.0136   1.0132   1.0128   1.0125
 Cp, KJ/(KG)(K)   22.2415  22.1903  22.1411  22.0937  22.0481  22.0041  21.9619  21.9211
 GAMMAs            1.6148   1.6163   1.6177   1.6192   1.6205   1.6218   1.6231   1.6244
 SON VEL,M/SEC     7651.0   7663.4   7675.7   7687.9   7699.9   7711.8   7723.7   7735.4

 TRANSPORT PROPERTIES (GASES ONLY)
   CONDUCTIVITY IN UNITS OF MILLIWATTS/(CM)(K)

 VISC,MILLIPOISE  0.49013  0.49100  0.49187  0.49274  0.49362  0.49449  0.49536  0.49624

  WITH EQUILIBRIUM REACTIONS

 Cp, KJ/(KG)(K)   22.2415  22.1903  22.1411  22.0937  22.0481  22.0041  21.9619  21.9211
 CONDUCTIVITY     16.5805  16.5642  16.5495  16.5362  16.5243  16.5138  16.5045  16.4966
 PRANDTL NUMBER    0.6575   0.6578   0.6581   0.6583   0.6586   0.6589   0.6592   0.6594

  WITH FROZEN REACTIONS

 Cp, KJ/(KG)(K)   20.6205  20.6206  20.6206  20.6207  20.6208  20.6209  20.6209  20.6210
 CONDUCTIVITY     15.1442  15.1716  15.1991  15.2266  15.2541  15.2815  15.3090  15.3364
 PRANDTL NUMBER    0.6674   0.6673   0.6673   0.6673   0.6673   0.6673   0.6672   0.6672

 MASS FRACTIONS

 *H               0.99757  0.99764  0.99771  0.99777  0.99783  0.99789  0.99795  0.99801
 *H2              0.00242  0.00236  0.00229  0.00222  0.00216  0.00210  0.00204  0.00199

  * THERMODYNAMIC PROPERTIES FITTED TO 20000.K

 NOTE. WEIGHT FRACTION OF FUEL IN TOTAL FUELS AND OF OXIDANT IN TOTAL OXIDANTS









               THERMODYNAMIC EQUILIBRIUM PROPERTIES AT ASSIGNED

                           TEMPERATURE AND PRESSURE

 CASE =                

             REACTANT                    WT FRACTION      ENERGY      TEMP
                                          (SEE NOTE)     KJ/KG-MOL      K  
 FUEL        H2                           1.0000000         0.000      0.000
 OXIDANT     H2                           1.0000000         0.000      0.000

 O/F=    1.00000  %FUEL= 50.000000  R,EQ.RATIO= 0.000000  PHI,EQ.RATIO=-1.000000

 THERMODYNAMIC PROPERTIES

 P, BAR           0.01100  0.01100  0.01100  0.01100  0.01100  0.01100  0.01100  0.01200
 T, K             4480.00  4490.00  4500.00  4510.00  4520.00  4530.00  4540.00  4400.00
 RHO, KG/CU M    2.9794-5 2.9727-5 2.9660-5 2.9594-5 2.9527-5 2.9462-5 2.9396-5 3.3105-5
 H, KJ/KG        302083.0 302301.7 302519.9 302737.8 302955.4 303172.6 303389.5 300268.1
 U, KJ/KG        265163.0 265298.3 265433.1 265567.7 265701.9 265835.9 265969.5 264020.3
 G, KJ/KG       -624420.1-626488.4-628557.2-630626.5-632696.3-634766.6-636837.3-604737.1
 S, KJ/(KG)(K)   206.8087 206.8575 206.9060 206.9544 207.0026 207.0506 207.0984 205.6830

 M, (1/n)           1.009    1.009    1.009    1.009    1.009    1.009    1.009    1.009
 (dLV/dLP)t      -1.00097 -1.00094 -1.00092 -1.00089 -1.00087 -1.00084 -1.00082 -1.00132
 (dLV/dLT)p        1.0121   1.0118   1.0114   1.0111   1.0108   1.0105   1.0102   1.0168
 Cp, KJ/(KG)(K)   21.8819  21.8442  21.8078  21.7728  21.7391  21.7066  21.6754  22.3849
 GAMMAs            1.6256   1.6267   1.6278   1.6289   1.6299   1.6309   1.6319   1.6107
 SON VEL,M/SEC     7747.0   7758.5   7769.8   7781.1   7792.3   7803.5   7814.5   7641.0

 TRANSPORT PROPERTIES (GASES ONLY)
   CONDUCTIVITY IN UNITS OF MILLIWATTS/(CM)(K)

 VISC,MILLIPOISE  0.49711  0.49799  0.49886  0.49974  0.50061  0.50149  0.50236  0.49024

  WITH EQUILIBRIUM REACTIONS

 Cp, KJ/(KG)(K)   21.8819  21.8442  21.8078  21.7728  21.7391  21.7066  21.6754  22.3849
 CONDUCTIVITY     16.4898  16.4842  16.4797  16.4762  16.4738  16.4724  16.4720  16.7116
 PRANDTL NUMBER    0.6597   0.6599   0.6602   0.6604   0.6606   0.6608   0.6611   0.6567

  WITH FROZEN REACTIONS

 Cp, KJ/(KG)(K)   20.6211  20.6211  20.6212  20.6212  20.6213  20.6214  20.6214  20.6203
 CONDUCTIVITY     15.3639  15.3913  15.4188  15.4462  15.4737  15.5011  15.5285  15.1460
 PRANDTL NUMBER    0.6672   0.6672   0.6672   0.6672   0.6672   0.6671   0.6671   0.6674

 MASS FRACTIONS

 *H               0.99806  0.99811  0.99817  0.99821  0.99826  0.99831  0.99835  0.99735
 *H+              0.00000  0.00000  0.00000  0.00001  0.00001  0.00001  0.00001  0.00000
 *H2              0.00193  0.00188  0.00183  0.00178  0.00173  0.00169  0.00164  0.00264

  * THERMODYNAMIC PROPERTIES FITTED TO 20000.K

 NOTE. WEIGHT FRACTION OF FUEL IN TOTAL FUELS AND OF OXIDANT IN TOTAL OXIDANTS









               THERMODYNAMIC EQUILIBRIUM PROPERTIES AT ASSIGNED

                           TEMPERATURE AND PRESSURE

 CASE =                

             REACTANT                    WT FRACTION      ENERGY      TEMP
                                          (SEE NOTE)     KJ/KG-MOL      K  
 FUEL        H2                           1.0000000         0.000      0.000
 OXIDANT     H2                           1.0000000         0.000      0.000

 O/F=    1.00000  %FUEL= 50.000000  R,EQ.RATIO= 0.000000  PHI,EQ.RATIO=-1.000000

 THERMODYNAMIC PROPERTIES

 P, BAR           0.01200  0.01200  0.01200  0.01200  0.01200  0.01200  0.01200  0.01200
 T, K             4410.00  4420.00  4430.00  4440.00  4450.00  4460.00  4470.00  4480.00
 RHO, KG/CU M    3.3029-5 3.2953-5 3.2878-5 3.2803-5 3.2728-5 3.2653-5 3.2579-5 3.2506-5
 H, KJ/KG        300491.7 300714.7 300937.2 301159.2 301380.7 301601.7 301822.3 302042.4
 U, KJ/KG        264160.2 264299.5 264438.3 264576.6 264714.5 264852.0 264989.0 265125.7
 G, KJ/KG       -606794.1-608851.7-610909.8-612968.4-615027.5-617087.1-619147.2-621207.8
 S, KJ/(KG)(K)   205.7337 205.7843 205.8345 205.8846 205.9344 205.9840 206.0334 206.0826

 M, (1/n)           1.009    1.009    1.009    1.009    1.009    1.009    1.009    1.009
 (dLV/dLP)t      -1.00128 -1.00125 -1.00121 -1.00118 -1.00115 -1.00111 -1.00108 -1.00105
 (dLV/dLT)p        1.0163   1.0158   1.0153   1.0149   1.0144   1.0140   1.0136   1.0132
 Cp, KJ/(KG)(K)   22.3291  22.2753  22.2235  22.1737  22.1257  22.0795  22.0350  21.9921
 GAMMAs            1.6123   1.6139   1.6154   1.6169   1.6183   1.6197   1.6210   1.6223
 SON VEL,M/SEC     7653.6   7666.2   7678.6   7690.9   7703.1   7715.1   7727.0   7738.9

 TRANSPORT PROPERTIES (GASES ONLY)
   CONDUCTIVITY IN UNITS OF MILLIWATTS/(CM)(K)

 VISC,MILLIPOISE  0.49111  0.49198  0.49285  0.49372  0.49459  0.49546  0.49633  0.49720

  WITH EQUILIBRIUM REACTIONS

 Cp, KJ/(KG)(K)   22.3291  22.2753  22.2235  22.1737  22.1257  22.0795  22.0350  21.9921
 CONDUCTIVITY     16.6914  16.6728  16.6558  16.6403  16.6263  16.6137  16.6025  16.5926
 PRANDTL NUMBER    0.6570   0.6573   0.6576   0.6579   0.6582   0.6585   0.6587   0.6590

  WITH FROZEN REACTIONS

 Cp, KJ/(KG)(K)   20.6204  20.6205  20.6205  20.6206  20.6207  20.6208  20.6208  20.6209
 CONDUCTIVITY     15.1734  15.2008  15.2283  15.2557  15.2831  15.3105  15.3379  15.3654
 PRANDTL NUMBER    0.6674   0.6674   0.6674   0.6673   0.6673   0.6673   0.6673   0.6673

 MASS FRACTIONS

 *H               0.99743  0.99750  0.99757  0.99764  0.99770  0.99777  0.99783  0.99789
 *H2              0.00257  0.00250  0.00243  0.00236  0.00229  0.00223  0.00217  0.00211

  * THERMODYNAMIC PROPERTIES FITTED TO 20000.K

 NOTE. WEIGHT FRACTION OF FUEL IN TOTAL FUELS AND OF OXIDANT IN TOTAL OXIDANTS









               THERMODYNAMIC EQUILIBRIUM PROPERTIES AT ASSIGNED

                           TEMPERATURE AND PRESSURE

 CASE =                

             REACTANT                    WT FRACTION      ENERGY      TEMP
                                          (SEE NOTE)     KJ/KG-MOL      K  
 FUEL        H2                           1.0000000         0.000      0.000
 OXIDANT     H2                           1.0000000         0.000      0.000

 O/F=    1.00000  %FUEL= 50.000000  R,EQ.RATIO= 0.000000  PHI,EQ.RATIO=-1.000000

 THERMODYNAMIC PROPERTIES

 P, BAR           0.01200  0.01200  0.01200  0.01200  0.01200  0.01200  0.01320  0.01320
 T, K             4490.00  4500.00  4510.00  4520.00  4530.00  4540.00  4400.00  4410.00
 RHO, KG/CU M    3.2432-5 3.2359-5 3.2287-5 3.2214-5 3.2142-5 3.2071-5 3.6421-5 3.6337-5
 H, KJ/KG        302262.1 302481.4 302700.4 302918.9 303137.1 303354.9 300207.4 300432.6
 U, KJ/KG        265261.9 265397.8 265533.3 265668.4 265803.2 265937.7 263964.4 264105.7
 G, KJ/KG       -623268.8-625330.4-627392.5-629455.0-631518.0-633581.5-601282.5-603331.6
 S, KJ/(KG)(K)   206.1316 206.1804 206.2290 206.2774 206.3256 206.3737 204.8841 204.9352

 M, (1/n)           1.009    1.009    1.009    1.009    1.009    1.009    1.009    1.009
 (dLV/dLP)t      -1.00103 -1.00100 -1.00097 -1.00095 -1.00092 -1.00090 -1.00145 -1.00141
 (dLV/dLT)p        1.0128   1.0124   1.0121   1.0117   1.0114   1.0111   1.0184   1.0179
 Cp, KJ/(KG)(K)   21.9509  21.9111  21.8728  21.8359  21.8004  21.7662  22.5568  22.4954
 GAMMAs            1.6235   1.6248   1.6259   1.6270   1.6281   1.6292   1.6059   1.6077
 SON VEL,M/SEC     7750.6   7762.2   7773.7   7785.1   7796.4   7807.6   7629.1   7642.1

 TRANSPORT PROPERTIES (GASES ONLY)
   CONDUCTIVITY IN UNITS OF MILLIWATTS/(CM)(K)

 VISC,MILLIPOISE  0.49808  0.49895  0.49982  0.50069  0.50157  0.50244  0.49037  0.49123

  WITH EQUILIBRIUM REACTIONS

 Cp, KJ/(KG)(K)   21.9509  21.9111  21.8728  21.8359  21.8004  21.7662  22.5568  22.4954
 CONDUCTIVITY     16.5839  16.5765  16.5702  16.5651  16.5610  16.5580  16.8688  16.8438
 PRANDTL NUMBER    0.6593   0.6595   0.6598   0.6600   0.6602   0.6605   0.6557   0.6561

  WITH FROZEN REACTIONS

 Cp, KJ/(KG)(K)   20.6210  20.6210  20.6211  20.6212  20.6212  20.6213  20.6200  20.6201
 CONDUCTIVITY     15.3928  15.4202  15.4476  15.4750  15.5024  15.5298  15.1481  15.1755
 PRANDTL NUMBER    0.6672   0.6672   0.6672   0.6672   0.6672   0.6672   0.6675   0.6675

 MASS FRACTIONS

 *H               0.99794  0.99800  0.99805  0.99811  0.99816  0.99820  0.99709  0.99717
 *H+              0.00000  0.00000  0.00000  0.00001  0.00001  0.00001  0.00000  0.00000
 *H2              0.00205  0.00200  0.00194  0.00189  0.00184  0.00179  0.00291  0.00282

  * THERMODYNAMIC PROPERTIES FITTED TO 20000.K

 NOTE. WEIGHT FRACTION OF FUEL IN TOTAL FUELS AND OF OXIDANT IN TOTAL OXIDANTS









               THERMODYNAMIC EQUILIBRIUM PROPERTIES AT ASSIGNED

                           TEMPERATURE AND PRESSURE

 CASE =                

             REACTANT                    WT FRACTION      ENERGY      TEMP
                                          (SEE NOTE)     KJ/KG-MOL      K  
 FUEL        H2                           1.0000000         0.000      0.000
 OXIDANT     H2                           1.0000000         0.000      0.000

 O/F=    1.00000  %FUEL= 50.000000  R,EQ.RATIO= 0.000000  PHI,EQ.RATIO=-1.000000

 THERMODYNAMIC PROPERTIES

 P, BAR           0.01320  0.01320  0.01320  0.01320  0.01320  0.01320  0.01320  0.01320
 T, K             4420.00  4430.00  4440.00  4450.00  4460.00  4470.00  4480.00  4490.00
 RHO, KG/CU M    3.6253-5 3.6170-5 3.6087-5 3.6005-5 3.5923-5 3.5841-5 3.5760-5 3.5679-5
 H, KJ/KG        300657.3 300881.4 301104.9 301327.9 301550.3 301772.3 301993.8 302214.8
 U, KJ/KG        264246.6 264386.9 264526.6 264665.9 264804.7 264943.0 265080.9 265218.3
 G, KJ/KG       -605381.2-607431.3-609481.9-611533.1-613584.7-615636.8-617689.4-619742.5
 S, KJ/(KG)(K)   204.9861 205.0367 205.0871 205.1373 205.1872 205.2369 205.2864 205.3357

 M, (1/n)           1.009    1.009    1.009    1.009    1.009    1.009    1.009    1.009
 (dLV/dLP)t      -1.00137 -1.00133 -1.00130 -1.00126 -1.00122 -1.00119 -1.00116 -1.00113
 (dLV/dLT)p        1.0173   1.0168   1.0163   1.0158   1.0154   1.0149   1.0145   1.0141
 Cp, KJ/(KG)(K)   22.4363  22.3793  22.3244  22.2716  22.2207  22.1717  22.1244  22.0789
 GAMMAs            1.6094   1.6110   1.6126   1.6141   1.6156   1.6171   1.6185   1.6198
 SON VEL,M/SEC     7654.9   7667.6   7680.2   7692.7   7705.0   7717.2   7729.3   7741.3

 TRANSPORT PROPERTIES (GASES ONLY)
   CONDUCTIVITY IN UNITS OF MILLIWATTS/(CM)(K)

 VISC,MILLIPOISE  0.49210  0.49297  0.49384  0.49470  0.49557  0.49644  0.49731  0.49818

  WITH EQUILIBRIUM REACTIONS

 Cp, KJ/(KG)(K)   22.4363  22.3793  22.3244  22.2716  22.2207  22.1717  22.1244  22.0789
 CONDUCTIVITY     16.8206  16.7991  16.7793  16.7612  16.7446  16.7295  16.7158  16.7035
 PRANDTL NUMBER    0.6564   0.6567   0.6570   0.6573   0.6576   0.6579   0.6582   0.6585

  WITH FROZEN REACTIONS

 Cp, KJ/(KG)(K)   20.6202  20.6203  20.6204  20.6205  20.6206  20.6207  20.6207  20.6208
 CONDUCTIVITY     15.2029  15.2303  15.2576  15.2850  15.3124  15.3398  15.3671  15.3945
 PRANDTL NUMBER    0.6675   0.6674   0.6674   0.6674   0.6674   0.6673   0.6673   0.6673

 MASS FRACTIONS

 *H               0.99725  0.99733  0.99740  0.99747  0.99754  0.99761  0.99768  0.99774
 *H2              0.00274  0.00267  0.00259  0.00252  0.00245  0.00238  0.00232  0.00226

  * THERMODYNAMIC PROPERTIES FITTED TO 20000.K

 NOTE. WEIGHT FRACTION OF FUEL IN TOTAL FUELS AND OF OXIDANT IN TOTAL OXIDANTS









               THERMODYNAMIC EQUILIBRIUM PROPERTIES AT ASSIGNED

                           TEMPERATURE AND PRESSURE

 CASE =                

             REACTANT                    WT FRACTION      ENERGY      TEMP
                                          (SEE NOTE)     KJ/KG-MOL      K  
 FUEL        H2                           1.0000000         0.000      0.000
 OXIDANT     H2                           1.0000000         0.000      0.000

 O/F=    1.00000  %FUEL= 50.000000  R,EQ.RATIO= 0.000000  PHI,EQ.RATIO=-1.000000

 THERMODYNAMIC PROPERTIES

 P, BAR           0.01320  0.01320  0.01320  0.01320  0.01320  0.01480  0.01480  0.01480
 T, K             4500.00  4510.00  4520.00  4530.00  4540.00  4400.00  4410.00  4420.00
 RHO, KG/CU M    3.5599-5 3.5519-5 3.5439-5 3.5360-5 3.5281-5 4.0843-5 4.0748-5 4.0654-5
 H, KJ/KG        302435.3 302655.5 302875.2 303094.5 303313.5 300126.5 300354.0 300580.8
 U, KJ/KG        265355.4 265492.0 265628.2 265764.1 265899.6 263889.8 264033.3 264176.2
 G, KJ/KG       -621796.1-623850.2-625904.8-627959.9-630015.4-597136.3-599175.8-601215.8
 S, KJ/(KG)(K)   205.3848 205.4336 205.4823 205.5308 205.5790 203.9234 203.9750 204.0264

 M, (1/n)           1.009    1.009    1.009    1.009    1.009    1.010    1.010    1.009
 (dLV/dLP)t      -1.00110 -1.00107 -1.00104 -1.00101 -1.00098 -1.00162 -1.00158 -1.00153
 (dLV/dLT)p        1.0137   1.0133   1.0129   1.0125   1.0122   1.0206   1.0200   1.0194
 Cp, KJ/(KG)(K)   22.0351  21.9928  21.9522  21.9130  21.8752  22.7859  22.7170  22.6507
 GAMMAs            1.6211   1.6224   1.6236   1.6248   1.6259   1.5997   1.6016   1.6035
 SON VEL,M/SEC     7753.1   7764.9   7776.5   7788.1   7799.5   7613.6   7627.0   7640.2

 TRANSPORT PROPERTIES (GASES ONLY)
   CONDUCTIVITY IN UNITS OF MILLIWATTS/(CM)(K)

 VISC,MILLIPOISE  0.49905  0.49992  0.50079  0.50166  0.50253  0.49054  0.49141  0.49227

  WITH EQUILIBRIUM REACTIONS

 Cp, KJ/(KG)(K)   22.0351  21.9928  21.9522  21.9130  21.8752  22.7859  22.7170  22.6507
 CONDUCTIVITY     16.6926  16.6829  16.6745  16.6673  16.6612  17.0781  17.0467  17.0174
 PRANDTL NUMBER    0.6588   0.6590   0.6593   0.6596   0.6598   0.6545   0.6549   0.6552

  WITH FROZEN REACTIONS

 Cp, KJ/(KG)(K)   20.6209  20.6210  20.6210  20.6211  20.6211  20.6197  20.6198  20.6199
 CONDUCTIVITY     15.4219  15.4492  15.4766  15.5040  15.5313  15.1510  15.1783  15.2056
 PRANDTL NUMBER    0.6673   0.6673   0.6673   0.6672   0.6672   0.6676   0.6676   0.6676

 MASS FRACTIONS

 *H               0.99780  0.99786  0.99792  0.99797  0.99803  0.99674  0.99683  0.99692
 *H+              0.00000  0.00000  0.00000  0.00001  0.00001  0.00000  0.00000  0.00000
 *H2              0.00219  0.00214  0.00208  0.00202  0.00197  0.00326  0.00316  0.00308

  * THERMODYNAMIC PROPERTIES FITTED TO 20000.K

 NOTE. WEIGHT FRACTION OF FUEL IN TOTAL FUELS AND OF OXIDANT IN TOTAL OXIDANTS









               THERMODYNAMIC EQUILIBRIUM PROPERTIES AT ASSIGNED

                           TEMPERATURE AND PRESSURE

 CASE =                

             REACTANT                    WT FRACTION      ENERGY      TEMP
                                          (SEE NOTE)     KJ/KG-MOL      K  
 FUEL        H2                           1.0000000         0.000      0.000
 OXIDANT     H2                           1.0000000         0.000      0.000

 O/F=    1.00000  %FUEL= 50.000000  R,EQ.RATIO= 0.000000  PHI,EQ.RATIO=-1.000000

 THERMODYNAMIC PROPERTIES

 P, BAR           0.01480  0.01480  0.01480  0.01480  0.01480  0.01480  0.01480  0.01480
 T, K             4430.00  4440.00  4450.00  4460.00  4470.00  4480.00  4490.00  4500.00
 RHO, KG/CU M    4.0561-5 4.0468-5 4.0375-5 4.0283-5 4.0191-5 4.0100-5 4.0009-5 3.9919-5
 H, KJ/KG        300807.0 301032.6 301257.5 301481.9 301705.7 301929.0 302151.7 302374.0
 U, KJ/KG        264318.4 264460.1 264601.2 264741.7 264881.8 265021.3 265160.3 265298.9
 G, KJ/KG       -603256.3-605297.3-607338.9-609380.9-611423.4-613466.5-615510.0-617554.1
 S, KJ/(KG)(K)   204.0775 204.1284 204.1790 204.2293 204.2795 204.3293 204.3790 204.4285

 M, (1/n)           1.009    1.009    1.009    1.009    1.009    1.009    1.009    1.009
 (dLV/dLP)t      -1.00149 -1.00145 -1.00141 -1.00137 -1.00133 -1.00130 -1.00126 -1.00123
 (dLV/dLT)p        1.0188   1.0183   1.0177   1.0172   1.0167   1.0162   1.0158   1.0153
 Cp, KJ/(KG)(K)   22.5868  22.5253  22.4660  22.4088  22.3538  22.3008  22.2497  22.2004
 GAMMAs            1.6052   1.6070   1.6087   1.6103   1.6119   1.6134   1.6149   1.6164
 SON VEL,M/SEC     7653.3   7666.3   7679.1   7691.8   7704.3   7716.7   7729.0   7741.2

 TRANSPORT PROPERTIES (GASES ONLY)
   CONDUCTIVITY IN UNITS OF MILLIWATTS/(CM)(K)

 VISC,MILLIPOISE  0.49313  0.49399  0.49486  0.49572  0.49659  0.49745  0.49832  0.49919

  WITH EQUILIBRIUM REACTIONS

 Cp, KJ/(KG)(K)   22.5868  22.5253  22.4660  22.4088  22.3538  22.3008  22.2497  22.2004
 CONDUCTIVITY     16.9900  16.9645  16.9408  16.9189  16.8986  16.8800  16.8628  16.8472
 PRANDTL NUMBER    0.6556   0.6559   0.6563   0.6566   0.6569   0.6572   0.6575   0.6578

  WITH FROZEN REACTIONS

 Cp, KJ/(KG)(K)   20.6200  20.6201  20.6202  20.6203  20.6204  20.6205  20.6206  20.6207
 CONDUCTIVITY     15.2329  15.2602  15.2875  15.3149  15.3422  15.3695  15.3968  15.4241
 PRANDTL NUMBER    0.6675   0.6675   0.6675   0.6675   0.6674   0.6674   0.6674   0.6674

 MASS FRACTIONS

 *H               0.99701  0.99709  0.99717  0.99725  0.99732  0.99740  0.99747  0.99754
 *H2              0.00299  0.00291  0.00283  0.00275  0.00267  0.00260  0.00253  0.00246

  * THERMODYNAMIC PROPERTIES FITTED TO 20000.K

 NOTE. WEIGHT FRACTION OF FUEL IN TOTAL FUELS AND OF OXIDANT IN TOTAL OXIDANTS









               THERMODYNAMIC EQUILIBRIUM PROPERTIES AT ASSIGNED

                           TEMPERATURE AND PRESSURE

 CASE =                

             REACTANT                    WT FRACTION      ENERGY      TEMP
                                          (SEE NOTE)     KJ/KG-MOL      K  
 FUEL        H2                           1.0000000         0.000      0.000
 OXIDANT     H2                           1.0000000         0.000      0.000

 O/F=    1.00000  %FUEL= 50.000000  R,EQ.RATIO= 0.000000  PHI,EQ.RATIO=-1.000000

 THERMODYNAMIC PROPERTIES

 P, BAR           0.01480  0.01480  0.01480  0.01480  0.01650  0.01650  0.01650  0.01650
 T, K             4510.00  4520.00  4530.00  4540.00  4400.00  4410.00  4420.00  4430.00
 RHO, KG/CU M    3.9829-5 3.9740-5 3.9651-5 3.9562-5 4.5542-5 4.5437-5 4.5332-5 4.5227-5
 H, KJ/KG        302595.7 302817.0 303037.9 303258.3 300040.7 300270.6 300499.7 300728.1
 U, KJ/KG        265437.1 265574.8 265712.0 265848.9 263810.8 263956.5 264101.4 264245.8
 G, KJ/KG       -619598.6-621643.6-623689.1-625735.1-593196.5-595226.9-597257.7-599289.1
 S, KJ/(KG)(K)   204.4777 204.5267 204.5755 204.6241 203.0084 203.0606 203.1125 203.1642

 M, (1/n)           1.009    1.009    1.009    1.009    1.010    1.010    1.010    1.010
 (dLV/dLP)t      -1.00120 -1.00116 -1.00113 -1.00110 -1.00181 -1.00176 -1.00171 -1.00166
 (dLV/dLT)p        1.0149   1.0144   1.0140   1.0136   1.0230   1.0223   1.0216   1.0210
 Cp, KJ/(KG)(K)   22.1530  22.1072  22.0631  22.0207  23.0289  22.9521  22.8782  22.8070
 GAMMAs            1.6178   1.6191   1.6204   1.6217   1.5933   1.5953   1.5974   1.5993
 SON VEL,M/SEC     7753.3   7765.3   7777.1   7788.8   7597.7   7611.4   7625.0   7638.5

 TRANSPORT PROPERTIES (GASES ONLY)
   CONDUCTIVITY IN UNITS OF MILLIWATTS/(CM)(K)

 VISC,MILLIPOISE  0.50005  0.50092  0.50179  0.50266  0.49073  0.49159  0.49244  0.49330

  WITH EQUILIBRIUM REACTIONS

 Cp, KJ/(KG)(K)   22.1530  22.1072  22.0631  22.0207  23.0289  22.9521  22.8782  22.8070
 CONDUCTIVITY     16.8331  16.8203  16.8088  16.7986  17.3001  17.2620  17.2262  17.1926
 PRANDTL NUMBER    0.6581   0.6584   0.6586   0.6589   0.6532   0.6536   0.6540   0.6544

  WITH FROZEN REACTIONS

 Cp, KJ/(KG)(K)   20.6207  20.6208  20.6209  20.6210  20.6194  20.6195  20.6196  20.6198
 CONDUCTIVITY     15.4514  15.4787  15.5061  15.5334  15.1541  15.1813  15.2085  15.2358
 PRANDTL NUMBER    0.6673   0.6673   0.6673   0.6673   0.6677   0.6677   0.6677   0.6676

 MASS FRACTIONS

 *H               0.99760  0.99767  0.99773  0.99779  0.99637  0.99647  0.99657  0.99667
 *H2              0.00239  0.00233  0.00227  0.00221  0.00363  0.00353  0.00343  0.00333

  * THERMODYNAMIC PROPERTIES FITTED TO 20000.K

 NOTE. WEIGHT FRACTION OF FUEL IN TOTAL FUELS AND OF OXIDANT IN TOTAL OXIDANTS









               THERMODYNAMIC EQUILIBRIUM PROPERTIES AT ASSIGNED

                           TEMPERATURE AND PRESSURE

 CASE =                

             REACTANT                    WT FRACTION      ENERGY      TEMP
                                          (SEE NOTE)     KJ/KG-MOL      K  
 FUEL        H2                           1.0000000         0.000      0.000
 OXIDANT     H2                           1.0000000         0.000      0.000

 O/F=    1.00000  %FUEL= 50.000000  R,EQ.RATIO= 0.000000  PHI,EQ.RATIO=-1.000000

 THERMODYNAMIC PROPERTIES

 P, BAR           0.01650  0.01650  0.01650  0.01650  0.01650  0.01650  0.01650  0.01650
 T, K             4440.00  4450.00  4460.00  4470.00  4480.00  4490.00  4500.00  4510.00
 RHO, KG/CU M    4.5123-5 4.5020-5 4.4917-5 4.4815-5 4.4713-5 4.4611-5 4.4511-5 4.4410-5
 H, KJ/KG        300955.9 301182.9 301409.3 301635.1 301860.3 302084.9 302308.9 302532.4
 U, KJ/KG        264389.4 264532.5 264674.9 264816.8 264958.1 265098.8 265239.1 265378.8
 G, KJ/KG       -601321.0-603353.4-605386.3-607419.8-609453.7-611488.1-613523.1-615558.5
 S, KJ/(KG)(K)   203.2155 203.2666 203.3174 203.3680 203.4183 203.4684 203.5182 203.5678

 M, (1/n)           1.010    1.010    1.009    1.009    1.009    1.009    1.009    1.009
 (dLV/dLP)t      -1.00162 -1.00157 -1.00153 -1.00149 -1.00145 -1.00141 -1.00137 -1.00133
 (dLV/dLT)p        1.0203   1.0197   1.0192   1.0186   1.0181   1.0175   1.0170   1.0165
 Cp, KJ/(KG)(K)   22.7384  22.6723  22.6086  22.5472  22.4880  22.4310  22.3760  22.3230
 GAMMAs            1.6012   1.6030   1.6048   1.6065   1.6082   1.6098   1.6114   1.6129
 SON VEL,M/SEC     7651.8   7665.0   7678.0   7690.9   7703.7   7716.3   7728.8   7741.2

 TRANSPORT PROPERTIES (GASES ONLY)
   CONDUCTIVITY IN UNITS OF MILLIWATTS/(CM)(K)

 VISC,MILLIPOISE  0.49416  0.49502  0.49588  0.49674  0.49761  0.49847  0.49933  0.50020

  WITH EQUILIBRIUM REACTIONS

 Cp, KJ/(KG)(K)   22.7384  22.6723  22.6086  22.5472  22.4880  22.4310  22.3760  22.3230
 CONDUCTIVITY     17.1610  17.1315  17.1039  17.0781  17.0542  17.0319  17.0114  16.9924
 PRANDTL NUMBER    0.6548   0.6551   0.6555   0.6558   0.6562   0.6565   0.6568   0.6571

  WITH FROZEN REACTIONS

 Cp, KJ/(KG)(K)   20.6199  20.6200  20.6201  20.6202  20.6203  20.6204  20.6204  20.6205
 CONDUCTIVITY     15.2630  15.2902  15.3175  15.3447  15.3720  15.3992  15.4265  15.4537
 PRANDTL NUMBER    0.6676   0.6676   0.6675   0.6675   0.6675   0.6675   0.6675   0.6674

 MASS FRACTIONS

 *H               0.99676  0.99685  0.99693  0.99702  0.99710  0.99718  0.99725  0.99733
 *H2              0.00324  0.00315  0.00306  0.00298  0.00290  0.00282  0.00274  0.00267

  * THERMODYNAMIC PROPERTIES FITTED TO 20000.K

 NOTE. WEIGHT FRACTION OF FUEL IN TOTAL FUELS AND OF OXIDANT IN TOTAL OXIDANTS









               THERMODYNAMIC EQUILIBRIUM PROPERTIES AT ASSIGNED

                           TEMPERATURE AND PRESSURE

 CASE =                

             REACTANT                    WT FRACTION      ENERGY      TEMP
                                          (SEE NOTE)     KJ/KG-MOL      K  
 FUEL        H2                           1.0000000         0.000      0.000
 OXIDANT     H2                           1.0000000         0.000      0.000

 O/F=    1.00000  %FUEL= 50.000000  R,EQ.RATIO= 0.000000  PHI,EQ.RATIO=-1.000000

 THERMODYNAMIC PROPERTIES

 P, BAR           0.01650  0.01650  0.01650  0.01800  0.01800  0.01800  0.01800  0.01800
 T, K             4520.00  4530.00  4540.00  4400.00  4410.00  4420.00  4430.00  4440.00
 RHO, KG/CU M    4.4310-5 4.4211-5 4.4112-5 4.9691-5 4.9575-5 4.9461-5 4.9346-5 4.9233-5
 H, KJ/KG        302755.4 302977.8 303199.8 299965.0 300197.0 300428.2 300658.6 300888.3
 U, KJ/KG        265518.0 265656.8 265795.2 263741.1 263888.7 264035.6 264181.8 264327.2
 G, KJ/KG       -617594.4-619630.8-621667.7-590044.3-592067.4-594090.9-596115.0-598139.5
 S, KJ/(KG)(K)   203.6172 203.6664 203.7153 202.2749 202.3275 202.3799 202.4320 202.4837

 M, (1/n)           1.009    1.009    1.009    1.010    1.010    1.010    1.010    1.010
 (dLV/dLP)t      -1.00130 -1.00126 -1.00123 -1.00197 -1.00192 -1.00186 -1.00181 -1.00176
 (dLV/dLT)p        1.0161   1.0156   1.0152   1.0250   1.0243   1.0236   1.0229   1.0222
 Cp, KJ/(KG)(K)   22.2720  22.2227  22.1753  23.2429  23.1593  23.0787  23.0011  22.9262
 GAMMAs            1.6144   1.6159   1.6172   1.5878   1.5900   1.5921   1.5942   1.5962
 SON VEL,M/SEC     7753.5   7765.6   7777.7   7583.9   7598.0   7611.9   7625.7   7639.3

 TRANSPORT PROPERTIES (GASES ONLY)
   CONDUCTIVITY IN UNITS OF MILLIWATTS/(CM)(K)

 VISC,MILLIPOISE  0.50106  0.50192  0.50279  0.49089  0.49175  0.49260  0.49346  0.49431

  WITH EQUILIBRIUM REACTIONS

 Cp, KJ/(KG)(K)   22.2720  22.2227  22.1753  23.2429  23.1593  23.0787  23.0011  22.9262
 CONDUCTIVITY     16.9750  16.9591  16.9445  17.4957  17.4517  17.4102  17.3710  17.3341
 PRANDTL NUMBER    0.6574   0.6577   0.6580   0.6522   0.6526   0.6530   0.6534   0.6538

  WITH FROZEN REACTIONS

 Cp, KJ/(KG)(K)   20.6206  20.6207  20.6208  20.6191  20.6192  20.6194  20.6195  20.6196
 CONDUCTIVITY     15.4810  15.5083  15.5355  15.1568  15.1839  15.2111  15.2383  15.2654
 PRANDTL NUMBER    0.6674   0.6674   0.6674   0.6678   0.6678   0.6677   0.6677   0.6677

 MASS FRACTIONS

 *H               0.99740  0.99747  0.99754  0.99604  0.99615  0.99626  0.99636  0.99647
 *H2              0.00260  0.00253  0.00246  0.00396  0.00385  0.00374  0.00363  0.00353

  * THERMODYNAMIC PROPERTIES FITTED TO 20000.K

 NOTE. WEIGHT FRACTION OF FUEL IN TOTAL FUELS AND OF OXIDANT IN TOTAL OXIDANTS









               THERMODYNAMIC EQUILIBRIUM PROPERTIES AT ASSIGNED

                           TEMPERATURE AND PRESSURE

 CASE =                

             REACTANT                    WT FRACTION      ENERGY      TEMP
                                          (SEE NOTE)     KJ/KG-MOL      K  
 FUEL        H2                           1.0000000         0.000      0.000
 OXIDANT     H2                           1.0000000         0.000      0.000

 O/F=    1.00000  %FUEL= 50.000000  R,EQ.RATIO= 0.000000  PHI,EQ.RATIO=-1.000000

 THERMODYNAMIC PROPERTIES

 P, BAR           0.01800  0.01800  0.01800  0.01800  0.01800  0.01800  0.01800  0.01800
 T, K             4450.00  4460.00  4470.00  4480.00  4490.00  4500.00  4510.00  4520.00
 RHO, KG/CU M    4.9120-5 4.9007-5 4.8895-5 4.8784-5 4.8673-5 4.8563-5 4.8453-5 4.8344-5
 H, KJ/KG        301117.2 301345.3 301572.9 301799.7 302025.9 302251.5 302476.6 302701.0
 U, KJ/KG        264472.0 264616.1 264759.5 264902.4 265044.6 265186.3 265327.5 265468.1
 G, KJ/KG       -600164.6-602190.2-604216.4-606243.0-608270.1-610297.8-612325.9-614354.5
 S, KJ/(KG)(K)   202.5352 202.5865 202.6374 202.6881 202.7385 202.7887 202.8387 202.8884

 M, (1/n)           1.010    1.010    1.010    1.010    1.009    1.009    1.009    1.009
 (dLV/dLP)t      -1.00171 -1.00167 -1.00162 -1.00158 -1.00153 -1.00149 -1.00145 -1.00141
 (dLV/dLT)p        1.0215   1.0209   1.0203   1.0197   1.0191   1.0186   1.0180   1.0175
 Cp, KJ/(KG)(K)   22.8541  22.7847  22.7177  22.6531  22.5909  22.5309  22.4731  22.4173
 GAMMAs            1.5982   1.6001   1.6019   1.6037   1.6054   1.6071   1.6088   1.6104
 SON VEL,M/SEC     7652.8   7666.1   7679.3   7692.4   7705.3   7718.1   7730.7   7743.3

 TRANSPORT PROPERTIES (GASES ONLY)
   CONDUCTIVITY IN UNITS OF MILLIWATTS/(CM)(K)

 VISC,MILLIPOISE  0.49517  0.49602  0.49688  0.49774  0.49860  0.49946  0.50032  0.50118

  WITH EQUILIBRIUM REACTIONS

 Cp, KJ/(KG)(K)   22.8541  22.7847  22.7177  22.6531  22.5909  22.5309  22.4731  22.4173
 CONDUCTIVITY     17.2994  17.2668  17.2363  17.2077  17.1809  17.1560  17.1328  17.1114
 PRANDTL NUMBER    0.6542   0.6545   0.6549   0.6553   0.6556   0.6559   0.6563   0.6566

  WITH FROZEN REACTIONS

 Cp, KJ/(KG)(K)   20.6197  20.6198  20.6199  20.6200  20.6201  20.6202  20.6203  20.6204
 CONDUCTIVITY     15.2926  15.3198  15.3470  15.3742  15.4014  15.4286  15.4558  15.4830
 PRANDTL NUMBER    0.6677   0.6676   0.6676   0.6676   0.6675   0.6675   0.6675   0.6675

 MASS FRACTIONS

 *H               0.99656  0.99666  0.99675  0.99684  0.99692  0.99701  0.99709  0.99717
 *H2              0.00343  0.00334  0.00325  0.00316  0.00307  0.00299  0.00291  0.00283

  * THERMODYNAMIC PROPERTIES FITTED TO 20000.K

 NOTE. WEIGHT FRACTION OF FUEL IN TOTAL FUELS AND OF OXIDANT IN TOTAL OXIDANTS









               THERMODYNAMIC EQUILIBRIUM PROPERTIES AT ASSIGNED

                           TEMPERATURE AND PRESSURE

 CASE =                

             REACTANT                    WT FRACTION      ENERGY      TEMP
                                          (SEE NOTE)     KJ/KG-MOL      K  
 FUEL        H2                           1.0000000         0.000      0.000
 OXIDANT     H2                           1.0000000         0.000      0.000

 O/F=    1.00000  %FUEL= 50.000000  R,EQ.RATIO= 0.000000  PHI,EQ.RATIO=-1.000000

 THERMODYNAMIC PROPERTIES

 P, BAR           0.01800  0.01800  0.02000  0.02000  0.02000  0.02000  0.02000  0.02000
 T, K             4530.00  4540.00  4400.00  4410.00  4420.00  4430.00  4440.00  4450.00
 RHO, KG/CU M    4.8236-5 4.8128-5 5.5224-5 5.5096-5 5.4968-5 5.4840-5 5.4714-5 5.4588-5
 H, KJ/KG        302924.9 303148.3 299864.3 300099.2 300333.1 300566.1 300798.3 301029.6
 U, KJ/KG        265608.2 265747.8 263648.3 263798.6 263948.0 264096.6 264244.4 264391.4
 G, KJ/KG       -616383.7-618413.3-586228.2-588242.3-590256.9-592272.1-594287.8-596304.0
 S, KJ/(KG)(K)   202.9379 202.9871 201.3847 201.4380 201.4909 201.5436 201.5960 201.6480

 M, (1/n)           1.009    1.009    1.010    1.010    1.010    1.010    1.010    1.010
 (dLV/dLP)t      -1.00138 -1.00134 -1.00219 -1.00213 -1.00207 -1.00201 -1.00195 -1.00190
 (dLV/dLT)p        1.0170   1.0165   1.0278   1.0269   1.0261   1.0254   1.0246   1.0239
 Cp, KJ/(KG)(K)   22.3635  22.3117  23.5278  23.4350  23.3455  23.2594  23.1763  23.0963
 GAMMAs            1.6119   1.6134   1.5807   1.5830   1.5853   1.5876   1.5897   1.5919
 SON VEL,M/SEC     7755.7   7768.0   7566.1   7580.6   7594.9   7609.1   7623.1   7636.9

 TRANSPORT PROPERTIES (GASES ONLY)
   CONDUCTIVITY IN UNITS OF MILLIWATTS/(CM)(K)

 VISC,MILLIPOISE  0.50204  0.50290  0.49111  0.49196  0.49281  0.49366  0.49451  0.49536

  WITH EQUILIBRIUM REACTIONS

 Cp, KJ/(KG)(K)   22.3635  22.3117  23.5278  23.4350  23.3455  23.2594  23.1763  23.0963
 CONDUCTIVITY     17.0915  17.0732  17.7560  17.7041  17.6550  17.6085  17.5646  17.5230
 PRANDTL NUMBER    0.6569   0.6572   0.6508   0.6512   0.6516   0.6521   0.6525   0.6529

  WITH FROZEN REACTIONS

 Cp, KJ/(KG)(K)   20.6205  20.6206  20.6187  20.6189  20.6190  20.6191  20.6193  20.6194
 CONDUCTIVITY     15.5102  15.5374  15.1604  15.1874  15.2145  15.2416  15.2687  15.2958
 PRANDTL NUMBER    0.6675   0.6674   0.6679   0.6679   0.6679   0.6678   0.6678   0.6678

 MASS FRACTIONS

 *H               0.99724  0.99731  0.99560  0.99573  0.99585  0.99596  0.99608  0.99618
 *H2              0.00275  0.00268  0.00439  0.00427  0.00415  0.00403  0.00392  0.00381

  * THERMODYNAMIC PROPERTIES FITTED TO 20000.K

 NOTE. WEIGHT FRACTION OF FUEL IN TOTAL FUELS AND OF OXIDANT IN TOTAL OXIDANTS









               THERMODYNAMIC EQUILIBRIUM PROPERTIES AT ASSIGNED

                           TEMPERATURE AND PRESSURE

 CASE =                

             REACTANT                    WT FRACTION      ENERGY      TEMP
                                          (SEE NOTE)     KJ/KG-MOL      K  
 FUEL        H2                           1.0000000         0.000      0.000
 OXIDANT     H2                           1.0000000         0.000      0.000

 O/F=    1.00000  %FUEL= 50.000000  R,EQ.RATIO= 0.000000  PHI,EQ.RATIO=-1.000000

 THERMODYNAMIC PROPERTIES

 P, BAR           0.02000  0.02000  0.02000  0.02000  0.02000  0.02000  0.02000  0.02000
 T, K             4460.00  4470.00  4480.00  4490.00  4500.00  4510.00  4520.00  4530.00
 RHO, KG/CU M    5.4463-5 5.4338-5 5.4214-5 5.4091-5 5.3968-5 5.3846-5 5.3724-5 5.3603-5
 H, KJ/KG        301260.2 301490.0 301719.1 301947.5 302175.2 302402.2 302628.6 302854.5
 U, KJ/KG        264537.7 264683.3 264828.2 264972.5 265116.1 265259.1 265401.6 265543.4
 G, KJ/KG       -598320.8-600338.0-602355.8-604374.1-606392.9-608412.2-610432.0-612452.2
 S, KJ/(KG)(K)   201.6998 201.7512 201.8024 201.8534 201.9040 201.9544 202.0046 202.0545

 M, (1/n)           1.010    1.010    1.010    1.010    1.010    1.010    1.010    1.009
 (dLV/dLP)t      -1.00185 -1.00180 -1.00175 -1.00170 -1.00166 -1.00161 -1.00157 -1.00153
 (dLV/dLT)p        1.0232   1.0225   1.0218   1.0212   1.0206   1.0200   1.0194   1.0189
 Cp, KJ/(KG)(K)   23.0191  22.9447  22.8730  22.8039  22.7372  22.6729  22.6109  22.5511
 GAMMAs            1.5939   1.5959   1.5978   1.5997   1.6016   1.6033   1.6051   1.6067
 SON VEL,M/SEC     7650.6   7664.2   7677.6   7690.9   7704.0   7717.1   7729.9   7742.7

 TRANSPORT PROPERTIES (GASES ONLY)
   CONDUCTIVITY IN UNITS OF MILLIWATTS/(CM)(K)

 VISC,MILLIPOISE  0.49621  0.49706  0.49792  0.49877  0.49963  0.50049  0.50134  0.50220

  WITH EQUILIBRIUM REACTIONS

 Cp, KJ/(KG)(K)   23.0191  22.9447  22.8730  22.8039  22.7372  22.6729  22.6109  22.5511
 CONDUCTIVITY     17.4838  17.4468  17.4120  17.3793  17.3486  17.3199  17.2930  17.2678
 PRANDTL NUMBER    0.6533   0.6537   0.6541   0.6545   0.6548   0.6552   0.6555   0.6559

  WITH FROZEN REACTIONS

 Cp, KJ/(KG)(K)   20.6195  20.6196  20.6198  20.6199  20.6200  20.6201  20.6202  20.6203
 CONDUCTIVITY     15.3229  15.3500  15.3771  15.4042  15.4314  15.4585  15.4857  15.5128
 PRANDTL NUMBER    0.6677   0.6677   0.6677   0.6676   0.6676   0.6676   0.6676   0.6675

 MASS FRACTIONS

 *H               0.99629  0.99639  0.99649  0.99658  0.99668  0.99677  0.99685  0.99694
 *H2              0.00371  0.00361  0.00351  0.00341  0.00332  0.00323  0.00314  0.00306

  * THERMODYNAMIC PROPERTIES FITTED TO 20000.K

 NOTE. WEIGHT FRACTION OF FUEL IN TOTAL FUELS AND OF OXIDANT IN TOTAL OXIDANTS









               THERMODYNAMIC EQUILIBRIUM PROPERTIES AT ASSIGNED

                           TEMPERATURE AND PRESSURE

 CASE =                

             REACTANT                    WT FRACTION      ENERGY      TEMP
                                          (SEE NOTE)     KJ/KG-MOL      K  
 FUEL        H2                           1.0000000         0.000      0.000
 OXIDANT     H2                           1.0000000         0.000      0.000

 O/F=    1.00000  %FUEL= 50.000000  R,EQ.RATIO= 0.000000  PHI,EQ.RATIO=-1.000000

 THERMODYNAMIC PROPERTIES

 P, BAR           0.02000
 T, K             4540.00
 RHO, KG/CU M    5.3483-5
 H, KJ/KG        303079.7
 U, KJ/KG        265684.8
 G, KJ/KG       -614473.0
 S, KJ/(KG)(K)   202.1041

 M, (1/n)           1.009
 (dLV/dLP)t      -1.00149
 (dLV/dLT)p        1.0183
 Cp, KJ/(KG)(K)   22.4935
 GAMMAs            1.6084
 SON VEL,M/SEC     7755.3

 TRANSPORT PROPERTIES (GASES ONLY)
   CONDUCTIVITY IN UNITS OF MILLIWATTS/(CM)(K)

 VISC,MILLIPOISE  0.50306

  WITH EQUILIBRIUM REACTIONS

 Cp, KJ/(KG)(K)   22.4935
 CONDUCTIVITY     17.2445
 PRANDTL NUMBER    0.6562

  WITH FROZEN REACTIONS

 Cp, KJ/(KG)(K)   20.6204
 CONDUCTIVITY     15.5400
 PRANDTL NUMBER    0.6675

 MASS FRACTIONS

 *H               0.99702
 *H2              0.00298

  * THERMODYNAMIC PROPERTIES FITTED TO 20000.K

 NOTE. WEIGHT FRACTION OF FUEL IN TOTAL FUELS AND OF OXIDANT IN TOTAL OXIDANTS



  
