
 *******************************************************************************

         NASA-GLENN CHEMICAL EQUILIBRIUM PROGRAM CEA2, MAY 21, 2004
                   BY  BONNIE MCBRIDE AND SANFORD GORDON
      REFS: NASA RP-1311, PART I, 1994 AND NASA RP-1311, PART II, 1996

 *******************************************************************************



  prob tp ions
  p,bar= 2.5,2.8,3.1,3.5,3.9,4.4,4.9,5.4,6.0,6.7,7.4,8.25,9.1,10.0,11.0
  t,k= 7550,7560,7570,7580,7590,7600,7610,7620,7630,7640,7650,7660,7670,7680,7690
  
  
  reac
  fuel H2                wt%=100.0000
  oxid H2                wt%=100.0000
  
  output short
  
  output massf
  
  output siunits
  
  output transport
  
 end





               THERMODYNAMIC EQUILIBRIUM PROPERTIES AT ASSIGNED

                           TEMPERATURE AND PRESSURE

 CASE =                

             REACTANT                    WT FRACTION      ENERGY      TEMP
                                          (SEE NOTE)     KJ/KG-MOL      K  
 FUEL        H2                           1.0000000         0.000      0.000
 OXIDANT     H2                           1.0000000         0.000      0.000

 O/F=    1.00000  %FUEL= 50.000000  R,EQ.RATIO= 0.000000  PHI,EQ.RATIO=-1.000000

 THERMODYNAMIC PROPERTIES

 P, BAR            2.5000   2.5000   2.5000   2.5000   2.5000   2.5000   2.5000   2.5000
 T, K             7550.00  7560.00  7570.00  7580.00  7590.00  7600.00  7610.00  7620.00
 RHO, KG/CU M    4.0167-3 4.0113-3 4.0059-3 4.0005-3 3.9951-3 3.9897-3 3.9844-3 3.9791-3
 H, KJ/KG        366277.7 366507.2 366736.9 366966.8 367196.8 367427.0 367657.3 367887.8
 U, KJ/KG        304037.1 304182.7 304328.4 304474.2 304620.2 304766.4 304912.7 305059.2
 G, KJ/KG       -939751.5-941481.5-943211.8-944942.4-946673.3-948404.5-950136.0-951867.8
 S, KJ/(KG)(K)   172.9840 173.0144 173.0447 173.0751 173.1054 173.1357 173.1660 173.1963

 M, (1/n)           1.009    1.009    1.009    1.009    1.008    1.008    1.008    1.008
 (dLV/dLP)t      -1.00174 -1.00174 -1.00173 -1.00172 -1.00172 -1.00171 -1.00170 -1.00170
 (dLV/dLT)p        1.0188   1.0189   1.0189   1.0189   1.0189   1.0189   1.0190   1.0190
 Cp, KJ/(KG)(K)   22.9472  22.9621  22.9773  22.9929  23.0089  23.0252  23.0418  23.0587
 GAMMAs            1.5903   1.5897   1.5892   1.5886   1.5880   1.5875   1.5869   1.5863
 SON VEL,M/SEC     9948.8   9953.8   9958.8   9963.7   9968.7   9973.5   9978.4   9983.2

 TRANSPORT PROPERTIES (GASES ONLY)
   CONDUCTIVITY IN UNITS OF MILLIWATTS/(CM)(K)

 VISC,MILLIPOISE  0.78146  0.78233  0.78320  0.78407  0.78494  0.78581  0.78667  0.78754

  WITH EQUILIBRIUM REACTIONS

 Cp, KJ/(KG)(K)   22.9472  22.9621  22.9773  22.9929  23.0089  23.0252  23.0418  23.0587
 CONDUCTIVITY     25.5036  25.5274  25.5513  25.5754  25.5997  25.6242  25.6487  25.6735
 PRANDTL NUMBER    0.7031   0.7037   0.7043   0.7049   0.7055   0.7061   0.7067   0.7073

  WITH FROZEN REACTIONS

 Cp, KJ/(KG)(K)   20.6499  20.6502  20.6505  20.6509  20.6512  20.6516  20.6519  20.6522
 CONDUCTIVITY     24.2763  24.3054  24.3345  24.3636  24.3927  24.4217  24.4508  24.4798
 PRANDTL NUMBER    0.6647   0.6647   0.6646   0.6646   0.6645   0.6645   0.6644   0.6644

 MASS FRACTIONS

 *H               0.99651  0.99652  0.99654  0.99655  0.99656  0.99658  0.99659  0.99660
 *H+              0.00074  0.00075  0.00076  0.00078  0.00079  0.00080  0.00081  0.00083
 *H2              0.00275  0.00272  0.00270  0.00267  0.00264  0.00262  0.00259  0.00257

  * THERMODYNAMIC PROPERTIES FITTED TO 20000.K

 NOTE. WEIGHT FRACTION OF FUEL IN TOTAL FUELS AND OF OXIDANT IN TOTAL OXIDANTS









               THERMODYNAMIC EQUILIBRIUM PROPERTIES AT ASSIGNED

                           TEMPERATURE AND PRESSURE

 CASE =                

             REACTANT                    WT FRACTION      ENERGY      TEMP
                                          (SEE NOTE)     KJ/KG-MOL      K  
 FUEL        H2                           1.0000000         0.000      0.000
 OXIDANT     H2                           1.0000000         0.000      0.000

 O/F=    1.00000  %FUEL= 50.000000  R,EQ.RATIO= 0.000000  PHI,EQ.RATIO=-1.000000

 THERMODYNAMIC PROPERTIES

 P, BAR            2.5000   2.5000   2.5000   2.5000   2.5000   2.5000   2.5000   2.8000
 T, K             7630.00  7640.00  7650.00  7660.00  7670.00  7680.00  7690.00  7550.00
 RHO, KG/CU M    3.9738-3 3.9685-3 3.9632-3 3.9579-3 3.9526-3 3.9474-3 3.9422-3 4.4996-3
 H, KJ/KG        368118.5 368349.3 368580.4 368811.6 369043.0 369274.5 369506.3 366142.3
 U, KJ/KG        305205.9 305352.7 305499.7 305646.8 305794.2 305941.7 306089.4 303914.5
 G, KJ/KG       -953599.9-955332.4-957065.1-958798.1-960531.4-962265.0-963999.0-932698.6
 S, KJ/(KG)(K)   173.2265 173.2568 173.2870 173.3172 173.3474 173.3775 173.4077 172.0319

 M, (1/n)           1.008    1.008    1.008    1.008    1.008    1.008    1.008    1.009
 (dLV/dLP)t      -1.00169 -1.00169 -1.00168 -1.00168 -1.00167 -1.00167 -1.00166 -1.00189
 (dLV/dLT)p        1.0190   1.0191   1.0191   1.0192   1.0192   1.0193   1.0193   1.0196
 Cp, KJ/(KG)(K)   23.0761  23.0937  23.1117  23.1300  23.1487  23.1677  23.1871  22.9274
 GAMMAs            1.5857   1.5851   1.5845   1.5838   1.5832   1.5826   1.5819   1.5919
 SON VEL,M/SEC     9988.0   9992.7   9997.5  10002.1  10006.8  10011.4  10016.0   9952.8

 TRANSPORT PROPERTIES (GASES ONLY)
   CONDUCTIVITY IN UNITS OF MILLIWATTS/(CM)(K)

 VISC,MILLIPOISE  0.78840  0.78926  0.79012  0.79098  0.79184  0.79269  0.79355  0.78206

  WITH EQUILIBRIUM REACTIONS

 Cp, KJ/(KG)(K)   23.0761  23.0937  23.1117  23.1300  23.1487  23.1677  23.1871  22.9274
 CONDUCTIVITY     25.6984  25.7235  25.7487  25.7740  25.7995  25.8252  25.8510  25.6015
 PRANDTL NUMBER    0.7079   0.7086   0.7092   0.7098   0.7105   0.7111   0.7118   0.7004

  WITH FROZEN REACTIONS

 Cp, KJ/(KG)(K)   20.6526  20.6529  20.6532  20.6536  20.6539  20.6542  20.6546  20.6491
 CONDUCTIVITY     24.5087  24.5377  24.5666  24.5955  24.6244  24.6533  24.6821  24.2853
 PRANDTL NUMBER    0.6644   0.6643   0.6643   0.6642   0.6642   0.6641   0.6641   0.6650

 MASS FRACTIONS

 *H               0.99661  0.99662  0.99664  0.99665  0.99666  0.99667  0.99668  0.99622
 *H+              0.00084  0.00085  0.00086  0.00088  0.00089  0.00090  0.00092  0.00070
 *H2              0.00254  0.00252  0.00250  0.00247  0.00245  0.00243  0.00240  0.00308

  * THERMODYNAMIC PROPERTIES FITTED TO 20000.K

 NOTE. WEIGHT FRACTION OF FUEL IN TOTAL FUELS AND OF OXIDANT IN TOTAL OXIDANTS









               THERMODYNAMIC EQUILIBRIUM PROPERTIES AT ASSIGNED

                           TEMPERATURE AND PRESSURE

 CASE =                

             REACTANT                    WT FRACTION      ENERGY      TEMP
                                          (SEE NOTE)     KJ/KG-MOL      K  
 FUEL        H2                           1.0000000         0.000      0.000
 OXIDANT     H2                           1.0000000         0.000      0.000

 O/F=    1.00000  %FUEL= 50.000000  R,EQ.RATIO= 0.000000  PHI,EQ.RATIO=-1.000000

 THERMODYNAMIC PROPERTIES

 P, BAR            2.8000   2.8000   2.8000   2.8000   2.8000   2.8000   2.8000   2.8000
 T, K             7560.00  7570.00  7580.00  7590.00  7600.00  7610.00  7620.00  7630.00
 RHO, KG/CU M    4.4935-3 4.4875-3 4.4814-3 4.4754-3 4.4694-3 4.4634-3 4.4575-3 4.4515-3
 H, KJ/KG        366371.6 366601.1 366830.7 367060.4 367290.3 367520.3 367750.5 367980.8
 U, KJ/KG        304059.8 304205.2 304350.8 304496.5 304642.3 304788.3 304934.4 305080.7
 G, KJ/KG       -934419.1-936139.8-937860.9-939582.3-941304.0-943026.0-944748.2-946470.8
 S, KJ/(KG)(K)   172.0623 172.0926 172.1229 172.1532 172.1835 172.2137 172.2439 172.2741

 M, (1/n)           1.009    1.009    1.009    1.009    1.009    1.009    1.009    1.009
 (dLV/dLP)t      -1.00188 -1.00187 -1.00186 -1.00185 -1.00184 -1.00184 -1.00183 -1.00182
 (dLV/dLT)p        1.0196   1.0196   1.0196   1.0196   1.0196   1.0196   1.0196   1.0196
 Cp, KJ/(KG)(K)   22.9402  22.9533  22.9668  22.9806  22.9947  23.0092  23.0240  23.0392
 GAMMAs            1.5914   1.5909   1.5904   1.5899   1.5893   1.5888   1.5883   1.5877
 SON VEL,M/SEC     9958.0   9963.2   9968.3   9973.4   9978.4   9983.5   9988.4   9993.4

 TRANSPORT PROPERTIES (GASES ONLY)
   CONDUCTIVITY IN UNITS OF MILLIWATTS/(CM)(K)

 VISC,MILLIPOISE  0.78294  0.78381  0.78469  0.78556  0.78643  0.78730  0.78816  0.78903

  WITH EQUILIBRIUM REACTIONS

 Cp, KJ/(KG)(K)   22.9402  22.9533  22.9668  22.9806  22.9947  23.0092  23.0240  23.0392
 CONDUCTIVITY     25.6239  25.6465  25.6693  25.6923  25.7154  25.7387  25.7622  25.7858
 PRANDTL NUMBER    0.7009   0.7015   0.7021   0.7026   0.7032   0.7038   0.7044   0.7050

  WITH FROZEN REACTIONS

 Cp, KJ/(KG)(K)   20.6494  20.6497  20.6501  20.6504  20.6507  20.6510  20.6513  20.6516
 CONDUCTIVITY     24.3145  24.3437  24.3728  24.4019  24.4310  24.4601  24.4892  24.5183
 PRANDTL NUMBER    0.6649   0.6649   0.6648   0.6648   0.6647   0.6647   0.6646   0.6646

 MASS FRACTIONS

 *H               0.99624  0.99626  0.99627  0.99629  0.99631  0.99632  0.99634  0.99636
 *H+              0.00071  0.00072  0.00073  0.00074  0.00076  0.00077  0.00078  0.00079
 *H2              0.00305  0.00302  0.00299  0.00296  0.00293  0.00290  0.00288  0.00285

  * THERMODYNAMIC PROPERTIES FITTED TO 20000.K

 NOTE. WEIGHT FRACTION OF FUEL IN TOTAL FUELS AND OF OXIDANT IN TOTAL OXIDANTS









               THERMODYNAMIC EQUILIBRIUM PROPERTIES AT ASSIGNED

                           TEMPERATURE AND PRESSURE

 CASE =                

             REACTANT                    WT FRACTION      ENERGY      TEMP
                                          (SEE NOTE)     KJ/KG-MOL      K  
 FUEL        H2                           1.0000000         0.000      0.000
 OXIDANT     H2                           1.0000000         0.000      0.000

 O/F=    1.00000  %FUEL= 50.000000  R,EQ.RATIO= 0.000000  PHI,EQ.RATIO=-1.000000

 THERMODYNAMIC PROPERTIES

 P, BAR            2.8000   2.8000   2.8000   2.8000   2.8000   2.8000   3.1000   3.1000
 T, K             7640.00  7650.00  7660.00  7670.00  7680.00  7690.00  7550.00  7560.00
 RHO, KG/CU M    4.4456-3 4.4396-3 4.4337-3 4.4278-3 4.4220-3 4.4161-3 4.9827-3 4.9760-3
 H, KJ/KG        368211.3 368441.9 368672.7 368903.6 369134.8 369366.0 366015.8 366245.1
 U, KJ/KG        305227.1 305373.7 305520.4 305667.3 305814.3 305961.5 303800.5 303945.7
 G, KJ/KG       -948193.7-949916.9-951640.4-953364.2-955088.3-956812.7-926365.5-928077.4
 S, KJ/(KG)(K)   172.3043 172.3345 172.3646 172.3948 172.4249 172.4550 171.1763 171.2067

 M, (1/n)           1.009    1.009    1.009    1.008    1.008    1.008    1.009    1.009
 (dLV/dLP)t      -1.00181 -1.00181 -1.00180 -1.00179 -1.00178 -1.00178 -1.00203 -1.00202
 (dLV/dLT)p        1.0196   1.0196   1.0197   1.0197   1.0197   1.0198   1.0204   1.0204
 Cp, KJ/(KG)(K)   23.0547  23.0706  23.0868  23.1033  23.1201  23.1374  22.9214  22.9322
 GAMMAs            1.5872   1.5866   1.5860   1.5855   1.5849   1.5843   1.5931   1.5926
 SON VEL,M/SEC     9998.3  10003.2  10008.1  10012.9  10017.7  10022.5   9955.5   9960.9

 TRANSPORT PROPERTIES (GASES ONLY)
   CONDUCTIVITY IN UNITS OF MILLIWATTS/(CM)(K)

 VISC,MILLIPOISE  0.78990  0.79076  0.79162  0.79249  0.79335  0.79421  0.78262  0.78349

  WITH EQUILIBRIUM REACTIONS

 Cp, KJ/(KG)(K)   23.0547  23.0706  23.0868  23.1033  23.1201  23.1374  22.9214  22.9322
 CONDUCTIVITY     25.8096  25.8336  25.8577  25.8820  25.9065  25.9311  25.7012  25.7223
 PRANDTL NUMBER    0.7056   0.7062   0.7068   0.7074   0.7080   0.7086   0.6980   0.6985

  WITH FROZEN REACTIONS

 Cp, KJ/(KG)(K)   20.6520  20.6523  20.6526  20.6529  20.6532  20.6536  20.6484  20.6487
 CONDUCTIVITY     24.5473  24.5763  24.6053  24.6343  24.6632  24.6921  24.2936  24.3228
 PRANDTL NUMBER    0.6646   0.6645   0.6645   0.6644   0.6644   0.6643   0.6652   0.6651

 MASS FRACTIONS

 *H               0.99637  0.99638  0.99640  0.99641  0.99643  0.99644  0.99592  0.99595
 *H+              0.00080  0.00082  0.00083  0.00084  0.00085  0.00087  0.00067  0.00068
 *H2              0.00282  0.00279  0.00277  0.00274  0.00272  0.00269  0.00341  0.00337

  * THERMODYNAMIC PROPERTIES FITTED TO 20000.K

 NOTE. WEIGHT FRACTION OF FUEL IN TOTAL FUELS AND OF OXIDANT IN TOTAL OXIDANTS









               THERMODYNAMIC EQUILIBRIUM PROPERTIES AT ASSIGNED

                           TEMPERATURE AND PRESSURE

 CASE =                

             REACTANT                    WT FRACTION      ENERGY      TEMP
                                          (SEE NOTE)     KJ/KG-MOL      K  
 FUEL        H2                           1.0000000         0.000      0.000
 OXIDANT     H2                           1.0000000         0.000      0.000

 O/F=    1.00000  %FUEL= 50.000000  R,EQ.RATIO= 0.000000  PHI,EQ.RATIO=-1.000000

 THERMODYNAMIC PROPERTIES

 P, BAR            3.1000   3.1000   3.1000   3.1000   3.1000   3.1000   3.1000   3.1000
 T, K             7570.00  7580.00  7590.00  7600.00  7610.00  7620.00  7630.00  7640.00
 RHO, KG/CU M    4.9693-3 4.9626-3 4.9559-3 4.9492-3 4.9426-3 4.9360-3 4.9294-3 4.9228-3
 H, KJ/KG        366474.5 366704.0 366933.6 367163.3 367393.2 367623.1 367853.3 368083.5
 U, KJ/KG        304091.0 304236.4 304381.9 304527.5 304673.3 304819.2 304965.2 305111.4
 G, KJ/KG       -929789.6-931502.2-933215.0-934928.1-936641.5-938355.3-940069.3-941783.6
 S, KJ/(KG)(K)   171.2370 171.2673 171.2976 171.3278 171.3580 171.3882 171.4184 171.4486

 M, (1/n)           1.009    1.009    1.009    1.009    1.009    1.009    1.009    1.009
 (dLV/dLP)t      -1.00201 -1.00200 -1.00199 -1.00198 -1.00197 -1.00196 -1.00195 -1.00194
 (dLV/dLT)p        1.0203   1.0203   1.0203   1.0203   1.0203   1.0203   1.0203   1.0203
 Cp, KJ/(KG)(K)   22.9434  22.9549  22.9668  22.9790  22.9915  23.0044  23.0177  23.0312
 GAMMAs            1.5922   1.5917   1.5912   1.5908   1.5903   1.5898   1.5893   1.5888
 SON VEL,M/SEC     9966.2   9971.5   9976.7   9981.9   9987.1   9992.2   9997.4  10002.4

 TRANSPORT PROPERTIES (GASES ONLY)
   CONDUCTIVITY IN UNITS OF MILLIWATTS/(CM)(K)

 VISC,MILLIPOISE  0.78437  0.78525  0.78612  0.78699  0.78787  0.78874  0.78961  0.79048

  WITH EQUILIBRIUM REACTIONS

 Cp, KJ/(KG)(K)   22.9434  22.9549  22.9668  22.9790  22.9915  23.0044  23.0177  23.0312
 CONDUCTIVITY     25.7436  25.7650  25.7867  25.8085  25.8306  25.8528  25.8752  25.8978
 PRANDTL NUMBER    0.6991   0.6996   0.7002   0.7007   0.7013   0.7018   0.7024   0.7030

  WITH FROZEN REACTIONS

 Cp, KJ/(KG)(K)   20.6490  20.6493  20.6497  20.6500  20.6503  20.6506  20.6509  20.6512
 CONDUCTIVITY     24.3520  24.3812  24.4104  24.4395  24.4687  24.4978  24.5269  24.5560
 PRANDTL NUMBER    0.6651   0.6651   0.6650   0.6650   0.6649   0.6649   0.6648   0.6648

 MASS FRACTIONS

 *H               0.99597  0.99599  0.99601  0.99603  0.99605  0.99607  0.99609  0.99611
 *H+              0.00069  0.00070  0.00071  0.00072  0.00073  0.00074  0.00075  0.00076
 *H2              0.00334  0.00331  0.00328  0.00325  0.00321  0.00318  0.00315  0.00312

  * THERMODYNAMIC PROPERTIES FITTED TO 20000.K

 NOTE. WEIGHT FRACTION OF FUEL IN TOTAL FUELS AND OF OXIDANT IN TOTAL OXIDANTS









               THERMODYNAMIC EQUILIBRIUM PROPERTIES AT ASSIGNED

                           TEMPERATURE AND PRESSURE

 CASE =                

             REACTANT                    WT FRACTION      ENERGY      TEMP
                                          (SEE NOTE)     KJ/KG-MOL      K  
 FUEL        H2                           1.0000000         0.000      0.000
 OXIDANT     H2                           1.0000000         0.000      0.000

 O/F=    1.00000  %FUEL= 50.000000  R,EQ.RATIO= 0.000000  PHI,EQ.RATIO=-1.000000

 THERMODYNAMIC PROPERTIES

 P, BAR            3.1000   3.1000   3.1000   3.1000   3.1000   3.5000   3.5000   3.5000
 T, K             7650.00  7660.00  7670.00  7680.00  7690.00  7550.00  7560.00  7570.00
 RHO, KG/CU M    4.9162-3 4.9097-3 4.9032-3 4.8967-3 4.8902-3 5.6271-3 5.6195-3 5.6119-3
 H, KJ/KG        368313.9 368544.4 368775.1 369005.9 369236.9 365857.8 366087.1 366316.6
 U, KJ/KG        305257.6 305404.1 305550.6 305697.3 305844.2 303658.5 303803.7 303949.0
 G, KJ/KG       -943498.3-945213.2-946928.5-948644.0-950359.8-918816.0-920517.7-922219.7
 S, KJ/(KG)(K)   171.4787 171.5088 171.5389 171.5690 171.5990 170.1555 170.1858 170.2161

 M, (1/n)           1.009    1.009    1.009    1.009    1.009    1.009    1.009    1.009
 (dLV/dLP)t      -1.00193 -1.00192 -1.00192 -1.00191 -1.00190 -1.00223 -1.00222 -1.00220
 (dLV/dLT)p        1.0203   1.0203   1.0203   1.0203   1.0203   1.0215   1.0215   1.0214
 Cp, KJ/(KG)(K)   23.0451  23.0594  23.0740  23.0889  23.1042  22.9294  22.9379  22.9467
 GAMMAs            1.5883   1.5877   1.5872   1.5867   1.5861   1.5941   1.5937   1.5933
 SON VEL,M/SEC    10007.5  10012.5  10017.5  10022.5  10027.4   9957.5   9963.1   9968.6

 TRANSPORT PROPERTIES (GASES ONLY)
   CONDUCTIVITY IN UNITS OF MILLIWATTS/(CM)(K)

 VISC,MILLIPOISE  0.79134  0.79221  0.79308  0.79394  0.79480  0.78329  0.78417  0.78505

  WITH EQUILIBRIUM REACTIONS

 Cp, KJ/(KG)(K)   23.0451  23.0594  23.0740  23.0889  23.1042  22.9294  22.9379  22.9467
 CONDUCTIVITY     25.9205  25.9434  25.9666  25.9898  26.0133  25.8362  25.8555  25.8750
 PRANDTL NUMBER    0.7036   0.7041   0.7047   0.7053   0.7059   0.6952   0.6957   0.6962

  WITH FROZEN REACTIONS

 Cp, KJ/(KG)(K)   20.6515  20.6518  20.6521  20.6524  20.6527  20.6477  20.6480  20.6483
 CONDUCTIVITY     24.5851  24.6142  24.6432  24.6722  24.7012  24.3038  24.3330  24.3623
 PRANDTL NUMBER    0.6647   0.6647   0.6646   0.6646   0.6645   0.6655   0.6654   0.6654

 MASS FRACTIONS

 *H               0.99613  0.99614  0.99616  0.99618  0.99619  0.99553  0.99555  0.99558
 *H+              0.00078  0.00079  0.00080  0.00081  0.00082  0.00063  0.00064  0.00065
 *H2              0.00309  0.00306  0.00304  0.00301  0.00298  0.00384  0.00381  0.00377

  * THERMODYNAMIC PROPERTIES FITTED TO 20000.K

 NOTE. WEIGHT FRACTION OF FUEL IN TOTAL FUELS AND OF OXIDANT IN TOTAL OXIDANTS









               THERMODYNAMIC EQUILIBRIUM PROPERTIES AT ASSIGNED

                           TEMPERATURE AND PRESSURE

 CASE =                

             REACTANT                    WT FRACTION      ENERGY      TEMP
                                          (SEE NOTE)     KJ/KG-MOL      K  
 FUEL        H2                           1.0000000         0.000      0.000
 OXIDANT     H2                           1.0000000         0.000      0.000

 O/F=    1.00000  %FUEL= 50.000000  R,EQ.RATIO= 0.000000  PHI,EQ.RATIO=-1.000000

 THERMODYNAMIC PROPERTIES

 P, BAR            3.5000   3.5000   3.5000   3.5000   3.5000   3.5000   3.5000   3.5000
 T, K             7580.00  7590.00  7600.00  7610.00  7620.00  7630.00  7640.00  7650.00
 RHO, KG/CU M    5.6043-3 5.5968-3 5.5893-3 5.5818-3 5.5743-3 5.5668-3 5.5594-3 5.5520-3
 H, KJ/KG        366546.1 366775.7 367005.4 367235.2 367465.1 367695.1 367925.2 368155.5
 U, KJ/KG        304094.3 304239.8 304385.3 304531.0 304676.8 304822.6 304968.6 305114.7
 G, KJ/KG       -923922.0-925624.6-927327.5-929030.7-930734.3-932438.1-934142.2-935846.6
 S, KJ/(KG)(K)   170.2464 170.2767 170.3070 170.3372 170.3674 170.3975 170.4277 170.4578

 M, (1/n)           1.009    1.009    1.009    1.009    1.009    1.009    1.009    1.009
 (dLV/dLP)t      -1.00219 -1.00218 -1.00217 -1.00215 -1.00214 -1.00213 -1.00212 -1.00211
 (dLV/dLT)p        1.0214   1.0213   1.0213   1.0213   1.0212   1.0212   1.0212   1.0212
 Cp, KJ/(KG)(K)   22.9559  22.9654  22.9752  22.9854  22.9960  23.0069  23.0181  23.0297
 GAMMAs            1.5929   1.5925   1.5921   1.5917   1.5913   1.5908   1.5904   1.5899
 SON VEL,M/SEC     9974.1   9979.5   9984.9   9990.3   9995.6  10000.9  10006.2  10011.5

 TRANSPORT PROPERTIES (GASES ONLY)
   CONDUCTIVITY IN UNITS OF MILLIWATTS/(CM)(K)

 VISC,MILLIPOISE  0.78593  0.78681  0.78768  0.78856  0.78943  0.79031  0.79118  0.79205

  WITH EQUILIBRIUM REACTIONS

 Cp, KJ/(KG)(K)   22.9559  22.9654  22.9752  22.9854  22.9960  23.0069  23.0181  23.0297
 CONDUCTIVITY     25.8948  25.9147  25.9349  25.9552  25.9758  25.9966  26.0176  26.0388
 PRANDTL NUMBER    0.6967   0.6973   0.6978   0.6983   0.6989   0.6994   0.7000   0.7005

  WITH FROZEN REACTIONS

 Cp, KJ/(KG)(K)   20.6486  20.6489  20.6491  20.6494  20.6497  20.6500  20.6503  20.6506
 CONDUCTIVITY     24.3915  24.4207  24.4499  24.4791  24.5083  24.5375  24.5666  24.5958
 PRANDTL NUMBER    0.6653   0.6653   0.6652   0.6652   0.6651   0.6651   0.6651   0.6650

 MASS FRACTIONS

 *H               0.99561  0.99563  0.99566  0.99568  0.99571  0.99573  0.99575  0.99578
 *H+              0.00066  0.00067  0.00068  0.00069  0.00070  0.00071  0.00072  0.00073
 *H2              0.00373  0.00370  0.00366  0.00363  0.00359  0.00356  0.00352  0.00349

  * THERMODYNAMIC PROPERTIES FITTED TO 20000.K

 NOTE. WEIGHT FRACTION OF FUEL IN TOTAL FUELS AND OF OXIDANT IN TOTAL OXIDANTS









               THERMODYNAMIC EQUILIBRIUM PROPERTIES AT ASSIGNED

                           TEMPERATURE AND PRESSURE

 CASE =                

             REACTANT                    WT FRACTION      ENERGY      TEMP
                                          (SEE NOTE)     KJ/KG-MOL      K  
 FUEL        H2                           1.0000000         0.000      0.000
 OXIDANT     H2                           1.0000000         0.000      0.000

 O/F=    1.00000  %FUEL= 50.000000  R,EQ.RATIO= 0.000000  PHI,EQ.RATIO=-1.000000

 THERMODYNAMIC PROPERTIES

 P, BAR            3.5000   3.5000   3.5000   3.5000   3.9000   3.9000   3.9000   3.9000
 T, K             7660.00  7670.00  7680.00  7690.00  7550.00  7560.00  7570.00  7580.00
 RHO, KG/CU M    5.5446-3 5.5372-3 5.5298-3 5.5225-3 6.2717-3 6.2633-3 6.2548-3 6.2464-3
 H, KJ/KG        368385.8 368616.3 368846.9 369077.6 365709.0 365938.5 366168.1 366397.8
 U, KJ/KG        305260.9 305407.2 305553.7 305700.2 303525.4 303670.7 303816.0 303961.5
 G, KJ/KG       -937551.4-939256.4-940961.7-942667.4-912086.0-913778.6-915471.5-917164.7
 S, KJ/(KG)(K)   170.4879 170.5180 170.5480 170.5780 169.2444 169.2747 169.3051 169.3354

 M, (1/n)           1.009    1.009    1.009    1.009    1.010    1.009    1.009    1.009
 (dLV/dLP)t      -1.00210 -1.00209 -1.00208 -1.00207 -1.00243 -1.00242 -1.00240 -1.00238
 (dLV/dLT)p        1.0212   1.0211   1.0211   1.0211   1.0227   1.0227   1.0226   1.0225
 Cp, KJ/(KG)(K)   23.0416  23.0538  23.0664  23.0793  22.9514  22.9577  22.9643  22.9713
 GAMMAs            1.5894   1.5890   1.5885   1.5880   1.5947   1.5944   1.5941   1.5937
 SON VEL,M/SEC    10016.7  10021.8  10027.0  10032.1   9958.2   9963.9   9969.6   9975.2

 TRANSPORT PROPERTIES (GASES ONLY)
   CONDUCTIVITY IN UNITS OF MILLIWATTS/(CM)(K)

 VISC,MILLIPOISE  0.79292  0.79379  0.79466  0.79553  0.78392  0.78480  0.78568  0.78656

  WITH EQUILIBRIUM REACTIONS

 Cp, KJ/(KG)(K)   23.0416  23.0538  23.0664  23.0793  22.9514  22.9577  22.9643  22.9713
 CONDUCTIVITY     26.0601  26.0817  26.1034  26.1254  25.9728  25.9904  26.0082  26.0263
 PRANDTL NUMBER    0.7011   0.7016   0.7022   0.7028   0.6927   0.6932   0.6937   0.6942

  WITH FROZEN REACTIONS

 Cp, KJ/(KG)(K)   20.6509  20.6512  20.6514  20.6517  20.6471  20.6474  20.6476  20.6479
 CONDUCTIVITY     24.6249  24.6540  24.6831  24.7122  24.3133  24.3425  24.3718  24.4011
 PRANDTL NUMBER    0.6650   0.6649   0.6649   0.6648   0.6657   0.6657   0.6656   0.6656

 MASS FRACTIONS

 *H               0.99580  0.99582  0.99584  0.99586  0.99512  0.99515  0.99519  0.99522
 *H+              0.00074  0.00075  0.00076  0.00078  0.00059  0.00060  0.00061  0.00062
 *H2              0.00346  0.00343  0.00339  0.00336  0.00428  0.00424  0.00420  0.00416

  * THERMODYNAMIC PROPERTIES FITTED TO 20000.K

 NOTE. WEIGHT FRACTION OF FUEL IN TOTAL FUELS AND OF OXIDANT IN TOTAL OXIDANTS









               THERMODYNAMIC EQUILIBRIUM PROPERTIES AT ASSIGNED

                           TEMPERATURE AND PRESSURE

 CASE =                

             REACTANT                    WT FRACTION      ENERGY      TEMP
                                          (SEE NOTE)     KJ/KG-MOL      K  
 FUEL        H2                           1.0000000         0.000      0.000
 OXIDANT     H2                           1.0000000         0.000      0.000

 O/F=    1.00000  %FUEL= 50.000000  R,EQ.RATIO= 0.000000  PHI,EQ.RATIO=-1.000000

 THERMODYNAMIC PROPERTIES

 P, BAR            3.9000   3.9000   3.9000   3.9000   3.9000   3.9000   3.9000   3.9000
 T, K             7590.00  7600.00  7610.00  7620.00  7630.00  7640.00  7650.00  7660.00
 RHO, KG/CU M    6.2380-3 6.2296-3 6.2212-3 6.2128-3 6.2045-3 6.1962-3 6.1879-3 6.1797-3
 H, KJ/KG        366627.5 366857.4 367087.3 367317.3 367547.3 367777.5 368007.7 368238.1
 U, KJ/KG        304107.0 304252.6 304398.3 304544.1 304689.9 304835.9 304981.9 305128.1
 G, KJ/KG       -918858.2-920552.0-922246.1-923940.5-925635.2-927330.2-929025.6-930721.2
 S, KJ/(KG)(K)   169.3657 169.3960 169.4262 169.4564 169.4866 169.5167 169.5468 169.5769

 M, (1/n)           1.009    1.009    1.009    1.009    1.009    1.009    1.009    1.009
 (dLV/dLP)t      -1.00237 -1.00236 -1.00234 -1.00233 -1.00231 -1.00230 -1.00229 -1.00227
 (dLV/dLT)p        1.0225   1.0224   1.0224   1.0223   1.0223   1.0222   1.0222   1.0221
 Cp, KJ/(KG)(K)   22.9787  22.9864  22.9944  23.0028  23.0116  23.0207  23.0301  23.0399
 GAMMAs            1.5934   1.5930   1.5926   1.5922   1.5919   1.5915   1.5911   1.5906
 SON VEL,M/SEC     9980.9   9986.4   9992.0   9997.5  10003.0  10008.4  10013.9  10019.3

 TRANSPORT PROPERTIES (GASES ONLY)
   CONDUCTIVITY IN UNITS OF MILLIWATTS/(CM)(K)

 VISC,MILLIPOISE  0.78744  0.78832  0.78920  0.79007  0.79095  0.79182  0.79270  0.79357

  WITH EQUILIBRIUM REACTIONS

 Cp, KJ/(KG)(K)   22.9787  22.9864  22.9944  23.0028  23.0116  23.0207  23.0301  23.0399
 CONDUCTIVITY     26.0446  26.0631  26.0818  26.1008  26.1200  26.1394  26.1590  26.1788
 PRANDTL NUMBER    0.6947   0.6953   0.6958   0.6963   0.6968   0.6974   0.6979   0.6984

  WITH FROZEN REACTIONS

 Cp, KJ/(KG)(K)   20.6482  20.6485  20.6487  20.6490  20.6493  20.6496  20.6498  20.6501
 CONDUCTIVITY     24.4303  24.4596  24.4888  24.5180  24.5472  24.5764  24.6056  24.6348
 PRANDTL NUMBER    0.6655   0.6655   0.6654   0.6654   0.6654   0.6653   0.6653   0.6652

 MASS FRACTIONS

 *H               0.99525  0.99528  0.99531  0.99533  0.99536  0.99539  0.99542  0.99544
 *H+              0.00063  0.00064  0.00065  0.00066  0.00067  0.00068  0.00069  0.00070
 *H2              0.00412  0.00408  0.00404  0.00400  0.00396  0.00393  0.00389  0.00385

  * THERMODYNAMIC PROPERTIES FITTED TO 20000.K

 NOTE. WEIGHT FRACTION OF FUEL IN TOTAL FUELS AND OF OXIDANT IN TOTAL OXIDANTS









               THERMODYNAMIC EQUILIBRIUM PROPERTIES AT ASSIGNED

                           TEMPERATURE AND PRESSURE

 CASE =                

             REACTANT                    WT FRACTION      ENERGY      TEMP
                                          (SEE NOTE)     KJ/KG-MOL      K  
 FUEL        H2                           1.0000000         0.000      0.000
 OXIDANT     H2                           1.0000000         0.000      0.000

 O/F=    1.00000  %FUEL= 50.000000  R,EQ.RATIO= 0.000000  PHI,EQ.RATIO=-1.000000

 THERMODYNAMIC PROPERTIES

 P, BAR            3.9000   3.9000   3.9000   4.4000   4.4000   4.4000   4.4000   4.4000
 T, K             7670.00  7680.00  7690.00  7550.00  7560.00  7570.00  7580.00  7590.00
 RHO, KG/CU M    6.1714-3 6.1632-3 6.1550-3 7.0780-3 7.0684-3 7.0588-3 7.0493-3 7.0398-3
 H, KJ/KG        368468.5 368699.1 368929.8 365532.6 365762.6 365992.5 366222.6 366452.7
 U, KJ/KG        305274.3 305420.6 305567.1 303368.2 303513.8 303659.4 303805.1 303950.9
 G, KJ/KG       -932417.1-934113.3-935809.8-904586.0-906268.5-907951.2-909634.2-911317.6
 S, KJ/(KG)(K)   169.6070 169.6370 169.6670 168.2276 168.2581 168.2885 168.3188 168.3492

 M, (1/n)           1.009    1.009    1.009    1.010    1.010    1.010    1.010    1.010
 (dLV/dLP)t      -1.00226 -1.00225 -1.00224 -1.00268 -1.00267 -1.00265 -1.00263 -1.00261
 (dLV/dLT)p        1.0221   1.0221   1.0220   1.0243   1.0242   1.0241   1.0240   1.0240
 Cp, KJ/(KG)(K)   23.0500  23.0605  23.0713  22.9934  22.9972  23.0013  23.0058  23.0107
 GAMMAs            1.5902   1.5898   1.5894   1.5950   1.5947   1.5945   1.5942   1.5939
 SON VEL,M/SEC    10024.6  10029.9  10035.2   9957.5   9963.5   9969.4   9975.2   9981.0

 TRANSPORT PROPERTIES (GASES ONLY)
   CONDUCTIVITY IN UNITS OF MILLIWATTS/(CM)(K)

 VISC,MILLIPOISE  0.79444  0.79531  0.79619  0.78465  0.78553  0.78641  0.78729  0.78817

  WITH EQUILIBRIUM REACTIONS

 Cp, KJ/(KG)(K)   23.0500  23.0605  23.0713  22.9934  22.9972  23.0013  23.0058  23.0107
 CONDUCTIVITY     26.1988  26.2191  26.2395  26.1454  26.1608  26.1765  26.1925  26.2087
 PRANDTL NUMBER    0.6990   0.6995   0.7001   0.6901   0.6905   0.6910   0.6915   0.6920

  WITH FROZEN REACTIONS

 Cp, KJ/(KG)(K)   20.6504  20.6507  20.6509  20.6465  20.6467  20.6470  20.6473  20.6475
 CONDUCTIVITY     24.6639  24.6930  24.7222  24.3244  24.3537  24.3830  24.4122  24.4415
 PRANDTL NUMBER    0.6652   0.6651   0.6651   0.6660   0.6660   0.6659   0.6659   0.6658

 MASS FRACTIONS

 *H               0.99547  0.99549  0.99552  0.99461  0.99465  0.99469  0.99472  0.99476
 *H+              0.00071  0.00072  0.00073  0.00056  0.00057  0.00058  0.00058  0.00059
 *H2              0.00381  0.00378  0.00374  0.00483  0.00478  0.00473  0.00469  0.00464

  * THERMODYNAMIC PROPERTIES FITTED TO 20000.K

 NOTE. WEIGHT FRACTION OF FUEL IN TOTAL FUELS AND OF OXIDANT IN TOTAL OXIDANTS









               THERMODYNAMIC EQUILIBRIUM PROPERTIES AT ASSIGNED

                           TEMPERATURE AND PRESSURE

 CASE =                

             REACTANT                    WT FRACTION      ENERGY      TEMP
                                          (SEE NOTE)     KJ/KG-MOL      K  
 FUEL        H2                           1.0000000         0.000      0.000
 OXIDANT     H2                           1.0000000         0.000      0.000

 O/F=    1.00000  %FUEL= 50.000000  R,EQ.RATIO= 0.000000  PHI,EQ.RATIO=-1.000000

 THERMODYNAMIC PROPERTIES

 P, BAR            4.4000   4.4000   4.4000   4.4000   4.4000   4.4000   4.4000   4.4000
 T, K             7600.00  7610.00  7620.00  7630.00  7640.00  7650.00  7660.00  7670.00
 RHO, KG/CU M    7.0303-3 7.0209-3 7.0114-3 7.0020-3 6.9926-3 6.9833-3 6.9740-3 6.9646-3
 H, KJ/KG        366682.8 366913.0 367143.2 367373.5 367603.9 367834.3 368064.8 368295.4
 U, KJ/KG        304096.7 304242.6 304388.5 304534.5 304680.6 304826.7 304972.9 305119.2
 G, KJ/KG       -913001.2-914685.2-916369.4-918054.0-919738.8-921424.0-923109.4-924795.2
 S, KJ/(KG)(K)   168.3795 168.4097 168.4400 168.4702 168.5004 168.5305 168.5606 168.5907

 M, (1/n)           1.010    1.010    1.010    1.010    1.010    1.009    1.009    1.009
 (dLV/dLP)t      -1.00259 -1.00258 -1.00256 -1.00254 -1.00253 -1.00251 -1.00250 -1.00248
 (dLV/dLT)p        1.0239   1.0238   1.0237   1.0236   1.0236   1.0235   1.0234   1.0234
 Cp, KJ/(KG)(K)   23.0159  23.0214  23.0274  23.0337  23.0403  23.0473  23.0546  23.0623
 GAMMAs            1.5936   1.5933   1.5930   1.5926   1.5923   1.5920   1.5916   1.5912
 SON VEL,M/SEC     9986.8   9992.6   9998.3  10004.0  10009.6  10015.3  10020.9  10026.4

 TRANSPORT PROPERTIES (GASES ONLY)
   CONDUCTIVITY IN UNITS OF MILLIWATTS/(CM)(K)

 VISC,MILLIPOISE  0.78905  0.78993  0.79081  0.79169  0.79257  0.79344  0.79432  0.79519

  WITH EQUILIBRIUM REACTIONS

 Cp, KJ/(KG)(K)   23.0159  23.0214  23.0274  23.0337  23.0403  23.0473  23.0546  23.0623
 CONDUCTIVITY     26.2252  26.2419  26.2589  26.2761  26.2936  26.3113  26.3292  26.3473
 PRANDTL NUMBER    0.6925   0.6930   0.6935   0.6940   0.6945   0.6950   0.6955   0.6960

  WITH FROZEN REACTIONS

 Cp, KJ/(KG)(K)   20.6478  20.6480  20.6483  20.6486  20.6488  20.6491  20.6493  20.6496
 CONDUCTIVITY     24.4708  24.5000  24.5293  24.5585  24.5877  24.6169  24.6461  24.6753
 PRANDTL NUMBER    0.6658   0.6657   0.6657   0.6656   0.6656   0.6656   0.6655   0.6655

 MASS FRACTIONS

 *H               0.99479  0.99483  0.99486  0.99490  0.99493  0.99496  0.99499  0.99502
 *H+              0.00060  0.00061  0.00062  0.00063  0.00064  0.00065  0.00066  0.00067
 *H2              0.00460  0.00455  0.00451  0.00447  0.00443  0.00438  0.00434  0.00430

  * THERMODYNAMIC PROPERTIES FITTED TO 20000.K

 NOTE. WEIGHT FRACTION OF FUEL IN TOTAL FUELS AND OF OXIDANT IN TOTAL OXIDANTS









               THERMODYNAMIC EQUILIBRIUM PROPERTIES AT ASSIGNED

                           TEMPERATURE AND PRESSURE

 CASE =                

             REACTANT                    WT FRACTION      ENERGY      TEMP
                                          (SEE NOTE)     KJ/KG-MOL      K  
 FUEL        H2                           1.0000000         0.000      0.000
 OXIDANT     H2                           1.0000000         0.000      0.000

 O/F=    1.00000  %FUEL= 50.000000  R,EQ.RATIO= 0.000000  PHI,EQ.RATIO=-1.000000

 THERMODYNAMIC PROPERTIES

 P, BAR            4.4000   4.4000   4.9000   4.9000   4.9000   4.9000   4.9000   4.9000
 T, K             7680.00  7690.00  7550.00  7560.00  7570.00  7580.00  7590.00  7600.00
 RHO, KG/CU M    6.9554-3 6.9461-3 7.8847-3 7.8740-3 7.8633-3 7.8527-3 7.8421-3 7.8315-3
 H, KJ/KG        368526.1 368756.8 365364.4 365594.9 365825.4 366055.9 366286.5 366517.0
 U, KJ/KG        305265.6 305412.1 303218.8 303364.8 303510.9 303657.0 303803.1 303949.2
 G, KJ/KG       -926481.2-928167.6-897896.2-899569.6-901243.2-902917.2-904591.4-906266.0
 S, KJ/(KG)(K)   168.6207 168.6508 167.3193 167.3498 167.3803 167.4107 167.4411 167.4715

 M, (1/n)           1.009    1.009    1.010    1.010    1.010    1.010    1.010    1.010
 (dLV/dLP)t      -1.00247 -1.00245 -1.00294 -1.00292 -1.00290 -1.00288 -1.00286 -1.00284
 (dLV/dLT)p        1.0233   1.0233   1.0260   1.0259   1.0257   1.0256   1.0255   1.0254
 Cp, KJ/(KG)(K)   23.0704  23.0787  23.0475  23.0489  23.0507  23.0529  23.0554  23.0583
 GAMMAs            1.5909   1.5905   1.5949   1.5947   1.5945   1.5943   1.5940   1.5938
 SON VEL,M/SEC    10031.9  10037.4   9955.7   9961.8   9967.9   9974.0   9980.0   9985.9

 TRANSPORT PROPERTIES (GASES ONLY)
   CONDUCTIVITY IN UNITS OF MILLIWATTS/(CM)(K)

 VISC,MILLIPOISE  0.79607  0.79694  0.78533  0.78621  0.78710  0.78798  0.78886  0.78974

  WITH EQUILIBRIUM REACTIONS

 Cp, KJ/(KG)(K)   23.0704  23.0787  23.0475  23.0489  23.0507  23.0529  23.0554  23.0583
 CONDUCTIVITY     26.3657  26.3843  26.3192  26.3325  26.3461  26.3601  26.3743  26.3887
 PRANDTL NUMBER    0.6966   0.6971   0.6877   0.6882   0.6886   0.6891   0.6896   0.6901

  WITH FROZEN REACTIONS

 Cp, KJ/(KG)(K)   20.6498  20.6501  20.6460  20.6462  20.6465  20.6467  20.6470  20.6472
 CONDUCTIVITY     24.7045  24.7337  24.3350  24.3642  24.3935  24.4228  24.4521  24.4813
 PRANDTL NUMBER    0.6654   0.6654   0.6663   0.6662   0.6662   0.6661   0.6661   0.6661

 MASS FRACTIONS

 *H               0.99505  0.99508  0.99410  0.99414  0.99418  0.99422  0.99427  0.99431
 *H+              0.00068  0.00069  0.00053  0.00054  0.00055  0.00055  0.00056  0.00057
 *H2              0.00426  0.00422  0.00537  0.00532  0.00527  0.00522  0.00517  0.00512

  * THERMODYNAMIC PROPERTIES FITTED TO 20000.K

 NOTE. WEIGHT FRACTION OF FUEL IN TOTAL FUELS AND OF OXIDANT IN TOTAL OXIDANTS









               THERMODYNAMIC EQUILIBRIUM PROPERTIES AT ASSIGNED

                           TEMPERATURE AND PRESSURE

 CASE =                

             REACTANT                    WT FRACTION      ENERGY      TEMP
                                          (SEE NOTE)     KJ/KG-MOL      K  
 FUEL        H2                           1.0000000         0.000      0.000
 OXIDANT     H2                           1.0000000         0.000      0.000

 O/F=    1.00000  %FUEL= 50.000000  R,EQ.RATIO= 0.000000  PHI,EQ.RATIO=-1.000000

 THERMODYNAMIC PROPERTIES

 P, BAR            4.9000   4.9000   4.9000   4.9000   4.9000   4.9000   4.9000   4.9000
 T, K             7610.00  7620.00  7630.00  7640.00  7650.00  7660.00  7670.00  7680.00
 RHO, KG/CU M    7.8210-3 7.8104-3 7.7999-3 7.7895-3 7.7790-3 7.7686-3 7.7582-3 7.7479-3
 H, KJ/KG        366747.6 366978.3 367208.9 367439.7 367670.4 367901.2 368132.1 368363.0
 U, KJ/KG        304095.4 304241.6 304387.9 304534.2 304680.6 304827.0 304973.5 305120.0
 G, KJ/KG       -907940.9-909616.0-911291.5-912967.3-914643.4-916319.7-917996.4-919673.4
 S, KJ/(KG)(K)   167.5018 167.5321 167.5623 167.5925 167.6227 167.6529 167.6830 167.7131

 M, (1/n)           1.010    1.010    1.010    1.010    1.010    1.010    1.010    1.010
 (dLV/dLP)t      -1.00282 -1.00280 -1.00278 -1.00276 -1.00274 -1.00272 -1.00270 -1.00269
 (dLV/dLT)p        1.0253   1.0252   1.0251   1.0250   1.0249   1.0248   1.0247   1.0246
 Cp, KJ/(KG)(K)   23.0616  23.0652  23.0693  23.0736  23.0784  23.0835  23.0889  23.0947
 GAMMAs            1.5935   1.5933   1.5930   1.5927   1.5924   1.5921   1.5918   1.5915
 SON VEL,M/SEC     9991.9   9997.8  10003.7  10009.5  10015.3  10021.1  10026.8  10032.5

 TRANSPORT PROPERTIES (GASES ONLY)
   CONDUCTIVITY IN UNITS OF MILLIWATTS/(CM)(K)

 VISC,MILLIPOISE  0.79062  0.79150  0.79238  0.79326  0.79414  0.79501  0.79589  0.79676

  WITH EQUILIBRIUM REACTIONS

 Cp, KJ/(KG)(K)   23.0616  23.0652  23.0693  23.0736  23.0784  23.0835  23.0889  23.0947
 CONDUCTIVITY     26.4035  26.4185  26.4338  26.4493  26.4651  26.4812  26.4975  26.5141
 PRANDTL NUMBER    0.6906   0.6910   0.6915   0.6920   0.6925   0.6930   0.6935   0.6940

  WITH FROZEN REACTIONS

 Cp, KJ/(KG)(K)   20.6475  20.6477  20.6479  20.6482  20.6484  20.6487  20.6489  20.6492
 CONDUCTIVITY     24.5106  24.5398  24.5691  24.5983  24.6275  24.6568  24.6860  24.7152
 PRANDTL NUMBER    0.6660   0.6660   0.6659   0.6659   0.6658   0.6658   0.6657   0.6657

 MASS FRACTIONS

 *H               0.99435  0.99439  0.99443  0.99446  0.99450  0.99454  0.99457  0.99461
 *H+              0.00058  0.00059  0.00060  0.00061  0.00062  0.00063  0.00063  0.00064
 *H2              0.00507  0.00502  0.00497  0.00493  0.00488  0.00483  0.00479  0.00474

  * THERMODYNAMIC PROPERTIES FITTED TO 20000.K

 NOTE. WEIGHT FRACTION OF FUEL IN TOTAL FUELS AND OF OXIDANT IN TOTAL OXIDANTS









               THERMODYNAMIC EQUILIBRIUM PROPERTIES AT ASSIGNED

                           TEMPERATURE AND PRESSURE

 CASE =                

             REACTANT                    WT FRACTION      ENERGY      TEMP
                                          (SEE NOTE)     KJ/KG-MOL      K  
 FUEL        H2                           1.0000000         0.000      0.000
 OXIDANT     H2                           1.0000000         0.000      0.000

 O/F=    1.00000  %FUEL= 50.000000  R,EQ.RATIO= 0.000000  PHI,EQ.RATIO=-1.000000

 THERMODYNAMIC PROPERTIES

 P, BAR            4.9000   5.4000   5.4000   5.4000   5.4000   5.4000   5.4000   5.4000
 T, K             7690.00  7550.00  7560.00  7570.00  7580.00  7590.00  7600.00  7610.00
 RHO, KG/CU M    7.7376-3 8.6919-3 8.6800-3 8.6683-3 8.6565-3 8.6448-3 8.6331-3 8.6215-3
 H, KJ/KG        368594.0 365202.6 365433.7 365664.8 365895.9 366126.9 366358.0 366589.2
 U, KJ/KG        305266.6 303075.4 303222.0 303368.5 303515.1 303661.6 303808.2 303954.8
 G, KJ/KG       -921350.7-891858.8-893523.9-895189.4-896855.1-898521.2-900187.5-901854.2
 S, KJ/(KG)(K)   167.7431 166.4982 166.5288 166.5593 166.5898 166.6203 166.6507 166.6811

 M, (1/n)           1.010    1.010    1.010    1.010    1.010    1.010    1.010    1.010
 (dLV/dLP)t      -1.00267 -1.00320 -1.00317 -1.00315 -1.00312 -1.00310 -1.00308 -1.00306
 (dLV/dLT)p        1.0246   1.0277   1.0275   1.0274   1.0272   1.0271   1.0270   1.0268
 Cp, KJ/(KG)(K)   23.1009  23.1107  23.1099  23.1095  23.1095  23.1098  23.1106  23.1117
 GAMMAs            1.5912   1.5945   1.5943   1.5942   1.5940   1.5938   1.5936   1.5934
 SON VEL,M/SEC    10038.2   9953.0   9959.3   9965.5   9971.7   9977.9   9984.1   9990.2

 TRANSPORT PROPERTIES (GASES ONLY)
   CONDUCTIVITY IN UNITS OF MILLIWATTS/(CM)(K)

 VISC,MILLIPOISE  0.79764  0.78598  0.78686  0.78774  0.78863  0.78951  0.79039  0.79127

  WITH EQUILIBRIUM REACTIONS

 Cp, KJ/(KG)(K)   23.1009  23.1107  23.1099  23.1095  23.1095  23.1098  23.1106  23.1117
 CONDUCTIVITY     26.5309  26.4939  26.5052  26.5167  26.5286  26.5408  26.5533  26.5661
 PRANDTL NUMBER    0.6945   0.6856   0.6861   0.6865   0.6870   0.6874   0.6879   0.6884

  WITH FROZEN REACTIONS

 Cp, KJ/(KG)(K)   20.6494  20.6455  20.6458  20.6460  20.6462  20.6465  20.6467  20.6470
 CONDUCTIVITY     24.7444  24.3451  24.3743  24.4036  24.4329  24.4621  24.4914  24.5206
 PRANDTL NUMBER    0.6656   0.6665   0.6665   0.6664   0.6664   0.6664   0.6663   0.6663

 MASS FRACTIONS

 *H               0.99464  0.99358  0.99363  0.99368  0.99372  0.99377  0.99382  0.99386
 *H+              0.00065  0.00050  0.00051  0.00052  0.00053  0.00054  0.00054  0.00055
 *H2              0.00470  0.00591  0.00586  0.00580  0.00575  0.00569  0.00564  0.00558

  * THERMODYNAMIC PROPERTIES FITTED TO 20000.K

 NOTE. WEIGHT FRACTION OF FUEL IN TOTAL FUELS AND OF OXIDANT IN TOTAL OXIDANTS









               THERMODYNAMIC EQUILIBRIUM PROPERTIES AT ASSIGNED

                           TEMPERATURE AND PRESSURE

 CASE =                

             REACTANT                    WT FRACTION      ENERGY      TEMP
                                          (SEE NOTE)     KJ/KG-MOL      K  
 FUEL        H2                           1.0000000         0.000      0.000
 OXIDANT     H2                           1.0000000         0.000      0.000

 O/F=    1.00000  %FUEL= 50.000000  R,EQ.RATIO= 0.000000  PHI,EQ.RATIO=-1.000000

 THERMODYNAMIC PROPERTIES

 P, BAR            5.4000   5.4000   5.4000   5.4000   5.4000   5.4000   5.4000   5.4000
 T, K             7620.00  7630.00  7640.00  7650.00  7660.00  7670.00  7680.00  7690.00
 RHO, KG/CU M    8.6098-3 8.5983-3 8.5867-3 8.5752-3 8.5637-3 8.5522-3 8.5408-3 8.5294-3
 H, KJ/KG        366820.3 367051.4 367282.6 367513.8 367745.0 367976.2 368207.5 368438.8
 U, KJ/KG        304101.4 304248.0 304394.7 304541.4 304688.1 304834.9 304981.7 305128.6
 G, KJ/KG       -903521.2-905188.4-906856.0-908523.9-910192.0-911860.5-913529.3-915198.4
 S, KJ/(KG)(K)   166.7115 166.7418 166.7721 166.8023 166.8325 166.8627 166.8928 166.9229

 M, (1/n)           1.010    1.010    1.010    1.010    1.010    1.010    1.010    1.010
 (dLV/dLP)t      -1.00303 -1.00301 -1.00299 -1.00297 -1.00295 -1.00293 -1.00291 -1.00289
 (dLV/dLT)p        1.0267   1.0266   1.0265   1.0263   1.0262   1.0261   1.0260   1.0259
 Cp, KJ/(KG)(K)   23.1132  23.1151  23.1173  23.1200  23.1230  23.1263  23.1300  23.1341
 GAMMAs            1.5932   1.5930   1.5928   1.5925   1.5923   1.5920   1.5918   1.5915
 SON VEL,M/SEC     9996.3  10002.3  10008.3  10014.3  10020.2  10026.1  10032.0  10037.8

 TRANSPORT PROPERTIES (GASES ONLY)
   CONDUCTIVITY IN UNITS OF MILLIWATTS/(CM)(K)

 VISC,MILLIPOISE  0.79215  0.79303  0.79391  0.79479  0.79566  0.79654  0.79742  0.79829

  WITH EQUILIBRIUM REACTIONS

 Cp, KJ/(KG)(K)   23.1132  23.1151  23.1173  23.1200  23.1230  23.1263  23.1300  23.1341
 CONDUCTIVITY     26.5792  26.5926  26.6062  26.6202  26.6344  26.6489  26.6637  26.6787
 PRANDTL NUMBER    0.6889   0.6893   0.6898   0.6903   0.6908   0.6912   0.6917   0.6922

  WITH FROZEN REACTIONS

 Cp, KJ/(KG)(K)   20.6472  20.6474  20.6477  20.6479  20.6481  20.6484  20.6486  20.6488
 CONDUCTIVITY     24.5499  24.5791  24.6084  24.6376  24.6668  24.6960  24.7252  24.7544
 PRANDTL NUMBER    0.6662   0.6662   0.6661   0.6661   0.6660   0.6660   0.6659   0.6659

 MASS FRACTIONS

 *H               0.99391  0.99395  0.99399  0.99404  0.99408  0.99412  0.99416  0.99420
 *H+              0.00056  0.00057  0.00058  0.00059  0.00060  0.00060  0.00061  0.00062
 *H2              0.00553  0.00548  0.00542  0.00537  0.00532  0.00527  0.00522  0.00517

  * THERMODYNAMIC PROPERTIES FITTED TO 20000.K

 NOTE. WEIGHT FRACTION OF FUEL IN TOTAL FUELS AND OF OXIDANT IN TOTAL OXIDANTS









               THERMODYNAMIC EQUILIBRIUM PROPERTIES AT ASSIGNED

                           TEMPERATURE AND PRESSURE

 CASE =                

             REACTANT                    WT FRACTION      ENERGY      TEMP
                                          (SEE NOTE)     KJ/KG-MOL      K  
 FUEL        H2                           1.0000000         0.000      0.000
 OXIDANT     H2                           1.0000000         0.000      0.000

 O/F=    1.00000  %FUEL= 50.000000  R,EQ.RATIO= 0.000000  PHI,EQ.RATIO=-1.000000

 THERMODYNAMIC PROPERTIES

 P, BAR            6.0000   6.0000   6.0000   6.0000   6.0000   6.0000   6.0000   6.0000
 T, K             7550.00  7560.00  7570.00  7580.00  7590.00  7600.00  7610.00  7620.00
 RHO, KG/CU M    9.6610-3 9.6479-3 9.6347-3 9.6217-3 9.6086-3 9.5956-3 9.5826-3 9.5697-3
 H, KJ/KG        365014.8 365246.7 365478.6 365710.5 365942.4 366174.2 366406.0 366637.9
 U, KJ/KG        302909.6 303056.8 303204.0 303351.2 303498.4 303645.6 303792.8 303940.0
 G, KJ/KG       -885314.2-886970.4-888626.9-890283.8-891940.9-893598.4-895256.1-896914.2
 S, KJ/(KG)(K)   165.6065 165.6372 165.6678 165.6985 165.7290 165.7595 165.7900 165.8205

 M, (1/n)           1.011    1.011    1.011    1.011    1.011    1.011    1.011    1.011
 (dLV/dLP)t      -1.00350 -1.00348 -1.00345 -1.00342 -1.00340 -1.00337 -1.00335 -1.00332
 (dLV/dLT)p        1.0298   1.0296   1.0294   1.0292   1.0290   1.0289   1.0287   1.0286
 Cp, KJ/(KG)(K)   23.1957  23.1924  23.1895  23.1870  23.1849  23.1832  23.1819  23.1809
 GAMMAs            1.5937   1.5936   1.5935   1.5934   1.5933   1.5932   1.5930   1.5929
 SON VEL,M/SEC     9948.8   9955.3   9961.7   9968.2   9974.5   9980.9   9987.2   9993.4

 TRANSPORT PROPERTIES (GASES ONLY)
   CONDUCTIVITY IN UNITS OF MILLIWATTS/(CM)(K)

 VISC,MILLIPOISE  0.78672  0.78760  0.78848  0.78936  0.79025  0.79113  0.79201  0.79289

  WITH EQUILIBRIUM REACTIONS

 Cp, KJ/(KG)(K)   23.1957  23.1924  23.1895  23.1870  23.1849  23.1832  23.1819  23.1809
 CONDUCTIVITY     26.7043  26.7131  26.7223  26.7318  26.7416  26.7517  26.7622  26.7730
 PRANDTL NUMBER    0.6834   0.6838   0.6842   0.6847   0.6851   0.6856   0.6860   0.6865

  WITH FROZEN REACTIONS

 Cp, KJ/(KG)(K)   20.6451  20.6453  20.6456  20.6458  20.6460  20.6462  20.6465  20.6467
 CONDUCTIVITY     24.3567  24.3860  24.4152  24.4445  24.4737  24.5029  24.5322  24.5614
 PRANDTL NUMBER    0.6668   0.6668   0.6667   0.6667   0.6667   0.6666   0.6666   0.6665

 MASS FRACTIONS

 *H               0.99295  0.99301  0.99306  0.99312  0.99317  0.99322  0.99327  0.99333
 *H+              0.00048  0.00048  0.00049  0.00050  0.00051  0.00052  0.00052  0.00053
 *H2              0.00657  0.00650  0.00644  0.00638  0.00632  0.00626  0.00620  0.00614

  * THERMODYNAMIC PROPERTIES FITTED TO 20000.K

 NOTE. WEIGHT FRACTION OF FUEL IN TOTAL FUELS AND OF OXIDANT IN TOTAL OXIDANTS









               THERMODYNAMIC EQUILIBRIUM PROPERTIES AT ASSIGNED

                           TEMPERATURE AND PRESSURE

 CASE =                

             REACTANT                    WT FRACTION      ENERGY      TEMP
                                          (SEE NOTE)     KJ/KG-MOL      K  
 FUEL        H2                           1.0000000         0.000      0.000
 OXIDANT     H2                           1.0000000         0.000      0.000

 O/F=    1.00000  %FUEL= 50.000000  R,EQ.RATIO= 0.000000  PHI,EQ.RATIO=-1.000000

 THERMODYNAMIC PROPERTIES

 P, BAR            6.0000   6.0000   6.0000   6.0000   6.0000   6.0000   6.0000   6.7000
 T, K             7630.00  7640.00  7650.00  7660.00  7670.00  7680.00  7690.00  7550.00
 RHO, KG/CU M    9.5568-3 9.5439-3 9.5311-3 9.5183-3 9.5056-3 9.4928-3 9.4802-3 1.0793-2
 H, KJ/KG        366869.7 367101.5 367333.3 367565.1 367796.9 368028.7 368260.6 364802.7
 U, KJ/KG        304087.1 304234.3 304381.5 304528.7 304675.9 304823.2 304970.5 302722.7
 G, KJ/KG       -898572.5-900231.2-901890.1-903549.4-905209.0-906868.8-908529.0-878462.4
 S, KJ/(KG)(K)   165.8509 165.8812 165.9116 165.9418 165.9721 166.0023 166.0325 164.6709

 M, (1/n)           1.010    1.010    1.010    1.010    1.010    1.010    1.010    1.011
 (dLV/dLP)t      -1.00330 -1.00327 -1.00325 -1.00322 -1.00320 -1.00318 -1.00316 -1.00387
 (dLV/dLT)p        1.0284   1.0283   1.0281   1.0280   1.0278   1.0277   1.0276   1.0322
 Cp, KJ/(KG)(K)   23.1804  23.1803  23.1805  23.1811  23.1821  23.1835  23.1852  23.3044
 GAMMAs            1.5927   1.5925   1.5923   1.5922   1.5920   1.5918   1.5915   1.5925
 SON VEL,M/SEC     9999.7  10005.9  10012.0  10018.2  10024.3  10030.3  10036.4   9943.0

 TRANSPORT PROPERTIES (GASES ONLY)
   CONDUCTIVITY IN UNITS OF MILLIWATTS/(CM)(K)

 VISC,MILLIPOISE  0.79377  0.79465  0.79552  0.79640  0.79728  0.79816  0.79903  0.78755

  WITH EQUILIBRIUM REACTIONS

 Cp, KJ/(KG)(K)   23.1804  23.1803  23.1805  23.1811  23.1821  23.1835  23.1852  23.3044
 CONDUCTIVITY     26.7841  26.7955  26.8073  26.8193  26.8316  26.8443  26.8572  26.9505
 PRANDTL NUMBER    0.6870   0.6874   0.6879   0.6884   0.6888   0.6893   0.6898   0.6810

  WITH FROZEN REACTIONS

 Cp, KJ/(KG)(K)   20.6469  20.6471  20.6473  20.6476  20.6478  20.6480  20.6482  20.6447
 CONDUCTIVITY     24.5906  24.6199  24.6491  24.6783  24.7075  24.7367  24.7659  24.3699
 PRANDTL NUMBER    0.6665   0.6664   0.6664   0.6663   0.6663   0.6662   0.6662   0.6672

 MASS FRACTIONS

 *H               0.99338  0.99342  0.99347  0.99352  0.99357  0.99361  0.99366  0.99222
 *H+              0.00054  0.00055  0.00056  0.00056  0.00057  0.00058  0.00059  0.00045
 *H2              0.00608  0.00602  0.00597  0.00591  0.00585  0.00580  0.00574  0.00732

  * THERMODYNAMIC PROPERTIES FITTED TO 20000.K

 NOTE. WEIGHT FRACTION OF FUEL IN TOTAL FUELS AND OF OXIDANT IN TOTAL OXIDANTS









               THERMODYNAMIC EQUILIBRIUM PROPERTIES AT ASSIGNED

                           TEMPERATURE AND PRESSURE

 CASE =                

             REACTANT                    WT FRACTION      ENERGY      TEMP
                                          (SEE NOTE)     KJ/KG-MOL      K  
 FUEL        H2                           1.0000000         0.000      0.000
 OXIDANT     H2                           1.0000000         0.000      0.000

 O/F=    1.00000  %FUEL= 50.000000  R,EQ.RATIO= 0.000000  PHI,EQ.RATIO=-1.000000

 THERMODYNAMIC PROPERTIES

 P, BAR            6.7000   6.7000   6.7000   6.7000   6.7000   6.7000   6.7000   6.7000
 T, K             7560.00  7570.00  7580.00  7590.00  7600.00  7610.00  7620.00  7630.00
 RHO, KG/CU M    1.0778-2 1.0763-2 1.0748-2 1.0734-2 1.0719-2 1.0705-2 1.0690-2 1.0676-2
 H, KJ/KG        365035.7 365268.7 365501.6 365734.4 365967.2 366200.0 366432.7 366665.4
 U, KJ/KG        302870.8 303018.9 303167.0 303315.0 303463.0 303611.0 303758.9 303906.8
 G, KJ/KG       -880109.2-881756.4-883403.9-885051.7-886699.8-888348.2-889996.9-891645.9
 S, KJ/(KG)(K)   164.7017 164.7325 164.7633 164.7940 164.8246 164.8552 164.8858 164.9163

 M, (1/n)           1.011    1.011    1.011    1.011    1.011    1.011    1.011    1.011
 (dLV/dLP)t      -1.00383 -1.00380 -1.00377 -1.00374 -1.00371 -1.00369 -1.00366 -1.00363
 (dLV/dLT)p        1.0320   1.0318   1.0316   1.0314   1.0312   1.0310   1.0308   1.0306
 Cp, KJ/(KG)(K)   23.2984  23.2927  23.2875  23.2826  23.2782  23.2742  23.2707  23.2675
 GAMMAs            1.5925   1.5924   1.5924   1.5923   1.5923   1.5922   1.5921   1.5920
 SON VEL,M/SEC     9949.7   9956.4   9963.0   9969.6   9976.1   9982.6   9989.1   9995.6

 TRANSPORT PROPERTIES (GASES ONLY)
   CONDUCTIVITY IN UNITS OF MILLIWATTS/(CM)(K)

 VISC,MILLIPOISE  0.78843  0.78931  0.79019  0.79107  0.79195  0.79283  0.79371  0.79458

  WITH EQUILIBRIUM REACTIONS

 Cp, KJ/(KG)(K)   23.2984  23.2927  23.2875  23.2826  23.2782  23.2742  23.2707  23.2675
 CONDUCTIVITY     26.9564  26.9628  26.9695  26.9766  26.9840  26.9918  27.0000  27.0085
 PRANDTL NUMBER    0.6814   0.6819   0.6823   0.6827   0.6832   0.6836   0.6841   0.6845

  WITH FROZEN REACTIONS

 Cp, KJ/(KG)(K)   20.6449  20.6451  20.6454  20.6456  20.6458  20.6460  20.6462  20.6464
 CONDUCTIVITY     24.3991  24.4283  24.4575  24.4867  24.5159  24.5451  24.5743  24.6035
 PRANDTL NUMBER    0.6671   0.6671   0.6670   0.6670   0.6669   0.6669   0.6668   0.6668

 MASS FRACTIONS

 *H               0.99228  0.99235  0.99241  0.99247  0.99253  0.99259  0.99264  0.99270
 *H+              0.00046  0.00047  0.00047  0.00048  0.00049  0.00049  0.00050  0.00051
 *H2              0.00725  0.00718  0.00711  0.00705  0.00698  0.00691  0.00685  0.00678

  * THERMODYNAMIC PROPERTIES FITTED TO 20000.K

 NOTE. WEIGHT FRACTION OF FUEL IN TOTAL FUELS AND OF OXIDANT IN TOTAL OXIDANTS









               THERMODYNAMIC EQUILIBRIUM PROPERTIES AT ASSIGNED

                           TEMPERATURE AND PRESSURE

 CASE =                

             REACTANT                    WT FRACTION      ENERGY      TEMP
                                          (SEE NOTE)     KJ/KG-MOL      K  
 FUEL        H2                           1.0000000         0.000      0.000
 OXIDANT     H2                           1.0000000         0.000      0.000

 O/F=    1.00000  %FUEL= 50.000000  R,EQ.RATIO= 0.000000  PHI,EQ.RATIO=-1.000000

 THERMODYNAMIC PROPERTIES

 P, BAR            6.7000   6.7000   6.7000   6.7000   6.7000   6.7000   7.4000   7.4000
 T, K             7640.00  7650.00  7660.00  7670.00  7680.00  7690.00  7550.00  7560.00
 RHO, KG/CU M    1.0661-2 1.0647-2 1.0633-2 1.0618-2 1.0604-2 1.0590-2 1.1925-2 1.1909-2
 H, KJ/KG        366898.0 367130.7 367363.3 367595.9 367828.5 368061.0 364596.4 364830.6
 U, KJ/KG        304054.7 304202.6 304350.5 304498.3 304646.2 304794.0 302541.4 302690.5
 G, KJ/KG       -893295.2-894944.8-896594.7-898245.0-899895.5-901546.3-872294.6-873933.0
 S, KJ/(KG)(K)   164.9468 164.9772 165.0076 165.0379 165.0682 165.0985 163.8266 163.8576

 M, (1/n)           1.011    1.011    1.011    1.011    1.011    1.011    1.012    1.012
 (dLV/dLP)t      -1.00360 -1.00357 -1.00355 -1.00352 -1.00349 -1.00347 -1.00423 -1.00419
 (dLV/dLT)p        1.0304   1.0303   1.0301   1.0299   1.0298   1.0296   1.0347   1.0345
 Cp, KJ/(KG)(K)   23.2647  23.2623  23.2603  23.2587  23.2575  23.2567  23.4210  23.4122
 GAMMAs            1.5919   1.5918   1.5916   1.5915   1.5914   1.5912   1.5911   1.5911
 SON VEL,M/SEC    10002.0  10008.3  10014.7  10021.0  10027.2  10033.5   9936.5   9943.4

 TRANSPORT PROPERTIES (GASES ONLY)
   CONDUCTIVITY IN UNITS OF MILLIWATTS/(CM)(K)

 VISC,MILLIPOISE  0.79546  0.79634  0.79722  0.79809  0.79897  0.79985  0.78834  0.78922

  WITH EQUILIBRIUM REACTIONS

 Cp, KJ/(KG)(K)   23.2647  23.2623  23.2603  23.2587  23.2575  23.2567  23.4210  23.4122
 CONDUCTIVITY     27.0173  27.0265  27.0360  27.0459  27.0560  27.0665  27.1969  27.2001
 PRANDTL NUMBER    0.6850   0.6854   0.6859   0.6863   0.6868   0.6873   0.6789   0.6793

  WITH FROZEN REACTIONS

 Cp, KJ/(KG)(K)   20.6466  20.6468  20.6470  20.6472  20.6474  20.6476  20.6444  20.6446
 CONDUCTIVITY     24.6327  24.6619  24.6911  24.7203  24.7495  24.7787  24.3827  24.4118
 PRANDTL NUMBER    0.6667   0.6667   0.6666   0.6666   0.6665   0.6665   0.6675   0.6674

 MASS FRACTIONS

 *H               0.99276  0.99281  0.99287  0.99292  0.99297  0.99303  0.99149  0.99156
 *H+              0.00052  0.00053  0.00053  0.00054  0.00055  0.00056  0.00043  0.00044
 *H2              0.00672  0.00665  0.00659  0.00653  0.00647  0.00641  0.00808  0.00800

  * THERMODYNAMIC PROPERTIES FITTED TO 20000.K

 NOTE. WEIGHT FRACTION OF FUEL IN TOTAL FUELS AND OF OXIDANT IN TOTAL OXIDANTS









               THERMODYNAMIC EQUILIBRIUM PROPERTIES AT ASSIGNED

                           TEMPERATURE AND PRESSURE

 CASE =                

             REACTANT                    WT FRACTION      ENERGY      TEMP
                                          (SEE NOTE)     KJ/KG-MOL      K  
 FUEL        H2                           1.0000000         0.000      0.000
 OXIDANT     H2                           1.0000000         0.000      0.000

 O/F=    1.00000  %FUEL= 50.000000  R,EQ.RATIO= 0.000000  PHI,EQ.RATIO=-1.000000

 THERMODYNAMIC PROPERTIES

 P, BAR            7.4000   7.4000   7.4000   7.4000   7.4000   7.4000   7.4000   7.4000
 T, K             7570.00  7580.00  7590.00  7600.00  7610.00  7620.00  7630.00  7640.00
 RHO, KG/CU M    1.1892-2 1.1876-2 1.1860-2 1.1844-2 1.1828-2 1.1812-2 1.1796-2 1.1780-2
 H, KJ/KG        365064.7 365298.7 365532.6 365766.5 366000.2 366234.0 366467.6 366701.2
 U, KJ/KG        302839.6 302988.6 303137.5 303286.4 303435.2 303584.0 303732.7 303881.4
 G, KJ/KG       -875571.7-877210.8-878850.1-880489.8-882129.7-883770.0-885410.6-887051.5
 S, KJ/(KG)(K)   163.8886 163.9195 163.9503 163.9811 164.0118 164.0425 164.0732 164.1038

 M, (1/n)           1.012    1.011    1.011    1.011    1.011    1.011    1.011    1.011
 (dLV/dLP)t      -1.00416 -1.00412 -1.00409 -1.00406 -1.00403 -1.00399 -1.00396 -1.00393
 (dLV/dLT)p        1.0342   1.0340   1.0337   1.0335   1.0333   1.0331   1.0329   1.0326
 Cp, KJ/(KG)(K)   23.4040  23.3961  23.3887  23.3817  23.3752  23.3691  23.3634  23.3581
 GAMMAs            1.5911   1.5911   1.5911   1.5911   1.5911   1.5911   1.5910   1.5910
 SON VEL,M/SEC     9950.2   9957.1   9963.8   9970.6   9977.3   9984.0   9990.6   9997.2

 TRANSPORT PROPERTIES (GASES ONLY)
   CONDUCTIVITY IN UNITS OF MILLIWATTS/(CM)(K)

 VISC,MILLIPOISE  0.79010  0.79098  0.79185  0.79273  0.79361  0.79449  0.79536  0.79624

  WITH EQUILIBRIUM REACTIONS

 Cp, KJ/(KG)(K)   23.4040  23.3961  23.3887  23.3817  23.3752  23.3691  23.3634  23.3581
 CONDUCTIVITY     27.2037  27.2076  27.2120  27.2168  27.2219  27.2275  27.2334  27.2397
 PRANDTL NUMBER    0.6797   0.6802   0.6806   0.6810   0.6815   0.6819   0.6823   0.6828

  WITH FROZEN REACTIONS

 Cp, KJ/(KG)(K)   20.6448  20.6450  20.6452  20.6454  20.6456  20.6458  20.6460  20.6462
 CONDUCTIVITY     24.4410  24.4701  24.4993  24.5285  24.5576  24.5868  24.6159  24.6451
 PRANDTL NUMBER    0.6674   0.6673   0.6673   0.6672   0.6672   0.6671   0.6671   0.6670

 MASS FRACTIONS

 *H               0.99163  0.99170  0.99176  0.99183  0.99190  0.99196  0.99203  0.99209
 *H+              0.00044  0.00045  0.00046  0.00046  0.00047  0.00048  0.00049  0.00049
 *H2              0.00793  0.00785  0.00777  0.00770  0.00763  0.00756  0.00748  0.00741

  * THERMODYNAMIC PROPERTIES FITTED TO 20000.K

 NOTE. WEIGHT FRACTION OF FUEL IN TOTAL FUELS AND OF OXIDANT IN TOTAL OXIDANTS









               THERMODYNAMIC EQUILIBRIUM PROPERTIES AT ASSIGNED

                           TEMPERATURE AND PRESSURE

 CASE =                

             REACTANT                    WT FRACTION      ENERGY      TEMP
                                          (SEE NOTE)     KJ/KG-MOL      K  
 FUEL        H2                           1.0000000         0.000      0.000
 OXIDANT     H2                           1.0000000         0.000      0.000

 O/F=    1.00000  %FUEL= 50.000000  R,EQ.RATIO= 0.000000  PHI,EQ.RATIO=-1.000000

 THERMODYNAMIC PROPERTIES

 P, BAR            7.4000   7.4000   7.4000   7.4000   7.4000   8.2500   8.2500   8.2500
 T, K             7650.00  7660.00  7670.00  7680.00  7690.00  7550.00  7560.00  7570.00
 RHO, KG/CU M    1.1764-2 1.1748-2 1.1732-2 1.1716-2 1.1701-2 1.3301-2 1.3283-2 1.3265-2
 H, KJ/KG        366934.8 367168.3 367401.8 367635.2 367868.6 364352.2 364587.8 364823.3
 U, KJ/KG        304030.0 304178.7 304327.3 304475.8 304624.4 302327.1 302477.5 302627.8
 G, KJ/KG       -888692.6-890334.1-891975.9-893618.0-895260.5-865548.7-867177.9-868807.4
 S, KJ/(KG)(K)   164.1343 164.1648 164.1953 164.2257 164.2561 162.9008 162.9320 162.9631

 M, (1/n)           1.011    1.011    1.011    1.011    1.011    1.012    1.012    1.012
 (dLV/dLP)t      -1.00390 -1.00387 -1.00384 -1.00381 -1.00378 -1.00467 -1.00463 -1.00459
 (dLV/dLT)p        1.0324   1.0322   1.0320   1.0319   1.0317   1.0378   1.0375   1.0372
 Cp, KJ/(KG)(K)   23.3532  23.3488  23.3447  23.3411  23.3379  23.5703  23.5585  23.5471
 GAMMAs            1.5909   1.5908   1.5907   1.5907   1.5906   1.5891   1.5892   1.5893
 SON VEL,M/SEC    10003.7  10010.3  10016.8  10023.2  10029.6   9927.9   9935.0   9942.1

 TRANSPORT PROPERTIES (GASES ONLY)
   CONDUCTIVITY IN UNITS OF MILLIWATTS/(CM)(K)

 VISC,MILLIPOISE  0.79712  0.79800  0.79887  0.79975  0.80062  0.78927  0.79015  0.79102

  WITH EQUILIBRIUM REACTIONS

 Cp, KJ/(KG)(K)   23.3532  23.3488  23.3447  23.3411  23.3379  23.5703  23.5585  23.5471
 CONDUCTIVITY     27.2464  27.2534  27.2608  27.2686  27.2767  27.4962  27.4960  27.4963
 PRANDTL NUMBER    0.6832   0.6837   0.6841   0.6846   0.6850   0.6766   0.6770   0.6774

  WITH FROZEN REACTIONS

 Cp, KJ/(KG)(K)   20.6464  20.6466  20.6468  20.6470  20.6471  20.6441  20.6443  20.6445
 CONDUCTIVITY     24.6743  24.7034  24.7326  24.7618  24.7909  24.3978  24.4269  24.4560
 PRANDTL NUMBER    0.6670   0.6669   0.6669   0.6668   0.6668   0.6678   0.6678   0.6677

 MASS FRACTIONS

 *H               0.99215  0.99221  0.99227  0.99233  0.99239  0.99059  0.99067  0.99075
 *H+              0.00050  0.00051  0.00052  0.00052  0.00053  0.00041  0.00041  0.00042
 *H2              0.00734  0.00727  0.00721  0.00714  0.00707  0.00900  0.00891  0.00882

  * THERMODYNAMIC PROPERTIES FITTED TO 20000.K

 NOTE. WEIGHT FRACTION OF FUEL IN TOTAL FUELS AND OF OXIDANT IN TOTAL OXIDANTS









               THERMODYNAMIC EQUILIBRIUM PROPERTIES AT ASSIGNED

                           TEMPERATURE AND PRESSURE

 CASE =                

             REACTANT                    WT FRACTION      ENERGY      TEMP
                                          (SEE NOTE)     KJ/KG-MOL      K  
 FUEL        H2                           1.0000000         0.000      0.000
 OXIDANT     H2                           1.0000000         0.000      0.000

 O/F=    1.00000  %FUEL= 50.000000  R,EQ.RATIO= 0.000000  PHI,EQ.RATIO=-1.000000

 THERMODYNAMIC PROPERTIES

 P, BAR            8.2500   8.2500   8.2500   8.2500   8.2500   8.2500   8.2500   8.2500
 T, K             7580.00  7590.00  7600.00  7610.00  7620.00  7630.00  7640.00  7650.00
 RHO, KG/CU M    1.3246-2 1.3228-2 1.3210-2 1.3192-2 1.3174-2 1.3157-2 1.3139-2 1.3121-2
 H, KJ/KG        365058.8 365294.1 365529.3 365764.4 365999.4 366234.3 366469.2 366703.9
 U, KJ/KG        302778.0 302928.1 303078.1 303228.1 303378.0 303527.8 303677.5 303827.2
 G, KJ/KG       -870437.1-872067.2-873697.6-875328.4-876959.4-878590.7-880222.4-881854.3
 S, KJ/(KG)(K)   162.9942 163.0252 163.0562 163.0871 163.1180 163.1488 163.1795 163.2102

 M, (1/n)           1.012    1.012    1.012    1.012    1.012    1.012    1.012    1.012
 (dLV/dLP)t      -1.00455 -1.00451 -1.00448 -1.00444 -1.00440 -1.00437 -1.00433 -1.00430
 (dLV/dLT)p        1.0369   1.0367   1.0364   1.0361   1.0359   1.0356   1.0354   1.0351
 Cp, KJ/(KG)(K)   23.5362  23.5258  23.5159  23.5064  23.4973  23.4887  23.4805  23.4728
 GAMMAs            1.5893   1.5894   1.5894   1.5895   1.5895   1.5895   1.5896   1.5896
 SON VEL,M/SEC     9949.1   9956.1   9963.1   9970.0   9976.9   9983.7   9990.5   9997.3

 TRANSPORT PROPERTIES (GASES ONLY)
   CONDUCTIVITY IN UNITS OF MILLIWATTS/(CM)(K)

 VISC,MILLIPOISE  0.79190  0.79277  0.79365  0.79452  0.79540  0.79627  0.79715  0.79802

  WITH EQUILIBRIUM REACTIONS

 Cp, KJ/(KG)(K)   23.5362  23.5258  23.5159  23.5064  23.4973  23.4887  23.4805  23.4728
 CONDUCTIVITY     27.4969  27.4981  27.4996  27.5016  27.5040  27.5069  27.5101  27.5138
 PRANDTL NUMBER    0.6778   0.6783   0.6787   0.6791   0.6795   0.6800   0.6804   0.6808

  WITH FROZEN REACTIONS

 Cp, KJ/(KG)(K)   20.6446  20.6448  20.6450  20.6452  20.6454  20.6456  20.6458  20.6459
 CONDUCTIVITY     24.4851  24.5142  24.5432  24.5724  24.6015  24.6306  24.6597  24.6888
 PRANDTL NUMBER    0.6677   0.6676   0.6676   0.6675   0.6675   0.6674   0.6674   0.6673

 MASS FRACTIONS

 *H               0.99083  0.99091  0.99098  0.99106  0.99113  0.99120  0.99127  0.99134
 *H+              0.00043  0.00043  0.00044  0.00045  0.00045  0.00046  0.00047  0.00047
 *H2              0.00874  0.00866  0.00857  0.00849  0.00841  0.00833  0.00825  0.00818

  * THERMODYNAMIC PROPERTIES FITTED TO 20000.K

 NOTE. WEIGHT FRACTION OF FUEL IN TOTAL FUELS AND OF OXIDANT IN TOTAL OXIDANTS









               THERMODYNAMIC EQUILIBRIUM PROPERTIES AT ASSIGNED

                           TEMPERATURE AND PRESSURE

 CASE =                

             REACTANT                    WT FRACTION      ENERGY      TEMP
                                          (SEE NOTE)     KJ/KG-MOL      K  
 FUEL        H2                           1.0000000         0.000      0.000
 OXIDANT     H2                           1.0000000         0.000      0.000

 O/F=    1.00000  %FUEL= 50.000000  R,EQ.RATIO= 0.000000  PHI,EQ.RATIO=-1.000000

 THERMODYNAMIC PROPERTIES

 P, BAR            8.2500   8.2500   8.2500   8.2500   9.1000   9.1000   9.1000   9.1000
 T, K             7660.00  7670.00  7680.00  7690.00  7550.00  7560.00  7570.00  7580.00
 RHO, KG/CU M    1.3103-2 1.3086-2 1.3068-2 1.3050-2 1.4679-2 1.4658-2 1.4638-2 1.4618-2
 H, KJ/KG        366938.6 367173.3 367407.8 367642.3 364113.3 364350.4 364587.5 364824.4
 U, KJ/KG        303976.8 304126.4 304275.9 304425.4 302117.9 302269.6 302421.2 302572.7
 G, KJ/KG       -883486.6-885119.1-886752.0-888385.2-859467.9-861088.7-862709.8-864331.2
 S, KJ/(KG)(K)   163.2409 163.2715 163.3021 163.3326 162.0637 162.0951 162.1265 162.1577

 M, (1/n)           1.012    1.012    1.011    1.011    1.013    1.013    1.012    1.012
 (dLV/dLP)t      -1.00426 -1.00423 -1.00420 -1.00416 -1.00511 -1.00506 -1.00502 -1.00498
 (dLV/dLT)p        1.0349   1.0347   1.0344   1.0342   1.0409   1.0405   1.0402   1.0399
 Cp, KJ/(KG)(K)   23.4655  23.4586  23.4522  23.4462  23.7259  23.7111  23.6969  23.6831
 GAMMAs            1.5895   1.5895   1.5895   1.5895   1.5869   1.5871   1.5872   1.5873
 SON VEL,M/SEC    10004.0  10010.7  10017.4  10024.0   9918.7   9926.0   9933.3   9940.6

 TRANSPORT PROPERTIES (GASES ONLY)
   CONDUCTIVITY IN UNITS OF MILLIWATTS/(CM)(K)

 VISC,MILLIPOISE  0.79890  0.79977  0.80065  0.80152  0.79017  0.79104  0.79192  0.79279

  WITH EQUILIBRIUM REACTIONS

 Cp, KJ/(KG)(K)   23.4655  23.4586  23.4522  23.4462  23.7259  23.7111  23.6969  23.6831
 CONDUCTIVITY     27.5178  27.5223  27.5271  27.5323  27.7953  27.7917  27.7887  27.7861
 PRANDTL NUMBER    0.6813   0.6817   0.6821   0.6826   0.6745   0.6749   0.6753   0.6757

  WITH FROZEN REACTIONS

 Cp, KJ/(KG)(K)   20.6461  20.6463  20.6465  20.6467  20.6438  20.6440  20.6442  20.6444
 CONDUCTIVITY     24.7179  24.7470  24.7761  24.8053  24.4126  24.4416  24.4706  24.4996
 PRANDTL NUMBER    0.6673   0.6672   0.6672   0.6671   0.6682   0.6681   0.6681   0.6680

 MASS FRACTIONS

 *H               0.99141  0.99148  0.99155  0.99162  0.98970  0.98979  0.98987  0.98996
 *H+              0.00048  0.00049  0.00050  0.00050  0.00039  0.00039  0.00040  0.00040
 *H2              0.00810  0.00802  0.00795  0.00788  0.00991  0.00982  0.00972  0.00963

  * THERMODYNAMIC PROPERTIES FITTED TO 20000.K

 NOTE. WEIGHT FRACTION OF FUEL IN TOTAL FUELS AND OF OXIDANT IN TOTAL OXIDANTS









               THERMODYNAMIC EQUILIBRIUM PROPERTIES AT ASSIGNED

                           TEMPERATURE AND PRESSURE

 CASE =                

             REACTANT                    WT FRACTION      ENERGY      TEMP
                                          (SEE NOTE)     KJ/KG-MOL      K  
 FUEL        H2                           1.0000000         0.000      0.000
 OXIDANT     H2                           1.0000000         0.000      0.000

 O/F=    1.00000  %FUEL= 50.000000  R,EQ.RATIO= 0.000000  PHI,EQ.RATIO=-1.000000

 THERMODYNAMIC PROPERTIES

 P, BAR            9.1000   9.1000   9.1000   9.1000   9.1000   9.1000   9.1000   9.1000
 T, K             7590.00  7600.00  7610.00  7620.00  7630.00  7640.00  7650.00  7660.00
 RHO, KG/CU M    1.4598-2 1.4578-2 1.4558-2 1.4538-2 1.4519-2 1.4499-2 1.4479-2 1.4460-2
 H, KJ/KG        365061.1 365297.8 365534.3 365770.7 366006.9 366243.1 366479.2 366715.1
 U, KJ/KG        302724.0 302875.3 303026.5 303177.5 303328.5 303479.3 303630.1 303780.8
 G, KJ/KG       -865953.0-867575.0-869197.4-870820.0-872443.0-874066.3-875689.9-877313.8
 S, KJ/(KG)(K)   162.1889 162.2201 162.2512 162.2822 162.3132 162.3442 162.3750 162.4059

 M, (1/n)           1.012    1.012    1.012    1.012    1.012    1.012    1.012    1.012
 (dLV/dLP)t      -1.00493 -1.00489 -1.00485 -1.00481 -1.00477 -1.00473 -1.00470 -1.00466
 (dLV/dLT)p        1.0396   1.0393   1.0390   1.0387   1.0384   1.0381   1.0378   1.0376
 Cp, KJ/(KG)(K)   23.6698  23.6570  23.6446  23.6328  23.6214  23.6105  23.6000  23.5900
 GAMMAs            1.5875   1.5876   1.5877   1.5878   1.5879   1.5879   1.5880   1.5880
 SON VEL,M/SEC     9947.8   9954.9   9962.1   9969.1   9976.2   9983.2   9990.2   9997.1

 TRANSPORT PROPERTIES (GASES ONLY)
   CONDUCTIVITY IN UNITS OF MILLIWATTS/(CM)(K)

 VISC,MILLIPOISE  0.79366  0.79453  0.79541  0.79628  0.79715  0.79802  0.79890  0.79977

  WITH EQUILIBRIUM REACTIONS

 Cp, KJ/(KG)(K)   23.6698  23.6570  23.6446  23.6328  23.6214  23.6105  23.6000  23.5900
 CONDUCTIVITY     27.7840  27.7824  27.7813  27.7806  27.7804  27.7806  27.7813  27.7824
 PRANDTL NUMBER    0.6761   0.6766   0.6770   0.6774   0.6778   0.6782   0.6787   0.6791

  WITH FROZEN REACTIONS

 Cp, KJ/(KG)(K)   20.6445  20.6447  20.6449  20.6451  20.6452  20.6454  20.6456  20.6457
 CONDUCTIVITY     24.5286  24.5577  24.5867  24.6157  24.6448  24.6738  24.7029  24.7320
 PRANDTL NUMBER    0.6680   0.6679   0.6679   0.6678   0.6678   0.6677   0.6677   0.6676

 MASS FRACTIONS

 *H               0.99005  0.99013  0.99021  0.99030  0.99038  0.99046  0.99053  0.99061
 *H+              0.00041  0.00042  0.00042  0.00043  0.00044  0.00044  0.00045  0.00046
 *H2              0.00954  0.00945  0.00936  0.00927  0.00918  0.00909  0.00901  0.00892

  * THERMODYNAMIC PROPERTIES FITTED TO 20000.K

 NOTE. WEIGHT FRACTION OF FUEL IN TOTAL FUELS AND OF OXIDANT IN TOTAL OXIDANTS









               THERMODYNAMIC EQUILIBRIUM PROPERTIES AT ASSIGNED

                           TEMPERATURE AND PRESSURE

 CASE =                

             REACTANT                    WT FRACTION      ENERGY      TEMP
                                          (SEE NOTE)     KJ/KG-MOL      K  
 FUEL        H2                           1.0000000         0.000      0.000
 OXIDANT     H2                           1.0000000         0.000      0.000

 O/F=    1.00000  %FUEL= 50.000000  R,EQ.RATIO= 0.000000  PHI,EQ.RATIO=-1.000000

 THERMODYNAMIC PROPERTIES

 P, BAR            9.1000   9.1000   9.1000   10.000   10.000   10.000   10.000   10.000
 T, K             7670.00  7680.00  7690.00  7550.00  7560.00  7570.00  7580.00  7590.00
 RHO, KG/CU M    1.4440-2 1.4420-2 1.4401-2 1.6138-2 1.6116-2 1.6094-2 1.6072-2 1.6050-2
 H, KJ/KG        366951.0 367186.7 367422.4 363865.0 364103.9 364342.6 364581.1 364819.4
 U, KJ/KG        303931.4 304082.0 304232.4 301900.8 302053.9 302207.0 302359.9 302512.6
 G, KJ/KG       -878938.0-880562.5-882187.3-853622.5-855235.2-856848.3-858461.6-860075.3
 S, KJ/(KG)(K)   162.4366 162.4673 162.4980 161.2566 161.2882 161.3198 161.3513 161.3827

 M, (1/n)           1.012    1.012    1.012    1.013    1.013    1.013    1.013    1.013
 (dLV/dLP)t      -1.00462 -1.00458 -1.00455 -1.00557 -1.00552 -1.00547 -1.00543 -1.00538
 (dLV/dLT)p        1.0373   1.0371   1.0368   1.0441   1.0438   1.0434   1.0431   1.0427
 Cp, KJ/(KG)(K)   23.5804  23.5713  23.5626  23.8959  23.8781  23.8608  23.8441  23.8278
 GAMMAs            1.5881   1.5881   1.5881   1.5845   1.5847   1.5849   1.5851   1.5853
 SON VEL,M/SEC    10004.0  10010.9  10017.7   9908.6   9916.2   9923.6   9931.1   9938.5

 TRANSPORT PROPERTIES (GASES ONLY)
   CONDUCTIVITY IN UNITS OF MILLIWATTS/(CM)(K)

 VISC,MILLIPOISE  0.80064  0.80151  0.80239  0.79110  0.79197  0.79284  0.79370  0.79457

  WITH EQUILIBRIUM REACTIONS

 Cp, KJ/(KG)(K)   23.5804  23.5713  23.5626  23.8959  23.8781  23.8608  23.8441  23.8278
 CONDUCTIVITY     27.7839  27.7859  27.7883  28.1113  28.1043  28.0978  28.0918  28.0864
 PRANDTL NUMBER    0.6795   0.6799   0.6804   0.6725   0.6729   0.6733   0.6737   0.6741

  WITH FROZEN REACTIONS

 Cp, KJ/(KG)(K)   20.6459  20.6461  20.6462  20.6436  20.6438  20.6440  20.6441  20.6443
 CONDUCTIVITY     24.7610  24.7901  24.8192  24.4280  24.4569  24.4858  24.5147  24.5437
 PRANDTL NUMBER    0.6676   0.6675   0.6675   0.6685   0.6685   0.6684   0.6684   0.6683

 MASS FRACTIONS

 *H               0.99069  0.99076  0.99084  0.98875  0.98885  0.98895  0.98904  0.98914
 *H+              0.00046  0.00047  0.00048  0.00037  0.00037  0.00038  0.00039  0.00039
 *H2              0.00884  0.00876  0.00868  0.01088  0.01077  0.01067  0.01057  0.01047

  * THERMODYNAMIC PROPERTIES FITTED TO 20000.K

 NOTE. WEIGHT FRACTION OF FUEL IN TOTAL FUELS AND OF OXIDANT IN TOTAL OXIDANTS









               THERMODYNAMIC EQUILIBRIUM PROPERTIES AT ASSIGNED

                           TEMPERATURE AND PRESSURE

 CASE =                

             REACTANT                    WT FRACTION      ENERGY      TEMP
                                          (SEE NOTE)     KJ/KG-MOL      K  
 FUEL        H2                           1.0000000         0.000      0.000
 OXIDANT     H2                           1.0000000         0.000      0.000

 O/F=    1.00000  %FUEL= 50.000000  R,EQ.RATIO= 0.000000  PHI,EQ.RATIO=-1.000000

 THERMODYNAMIC PROPERTIES

 P, BAR            10.000   10.000   10.000   10.000   10.000   10.000   10.000   10.000
 T, K             7600.00  7610.00  7620.00  7630.00  7640.00  7650.00  7660.00  7670.00
 RHO, KG/CU M    1.6028-2 1.6006-2 1.5984-2 1.5962-2 1.5940-2 1.5918-2 1.5897-2 1.5875-2
 H, KJ/KG        365057.6 365295.7 365533.6 365771.3 366008.9 366246.4 366483.8 366721.0
 U, KJ/KG        302665.2 302817.7 302970.1 303122.3 303274.4 303426.4 303578.3 303730.1
 G, KJ/KG       -861689.3-863303.6-864918.2-866533.1-868148.4-869763.9-871379.7-872995.9
 S, KJ/(KG)(K)   161.4141 161.4454 161.4766 161.5078 161.5389 161.5700 161.6010 161.6319

 M, (1/n)           1.013    1.013    1.013    1.013    1.013    1.013    1.012    1.012
 (dLV/dLP)t      -1.00533 -1.00529 -1.00525 -1.00520 -1.00516 -1.00512 -1.00507 -1.00503
 (dLV/dLT)p        1.0424   1.0420   1.0417   1.0414   1.0411   1.0408   1.0404   1.0401
 Cp, KJ/(KG)(K)   23.8121  23.7969  23.7821  23.7679  23.7542  23.7409  23.7281  23.7158
 GAMMAs            1.5854   1.5856   1.5858   1.5859   1.5860   1.5861   1.5863   1.5864
 SON VEL,M/SEC     9945.8   9953.2   9960.5   9967.7   9974.9   9982.1   9989.2   9996.3

 TRANSPORT PROPERTIES (GASES ONLY)
   CONDUCTIVITY IN UNITS OF MILLIWATTS/(CM)(K)

 VISC,MILLIPOISE  0.79544  0.79631  0.79718  0.79805  0.79892  0.79979  0.80066  0.80153

  WITH EQUILIBRIUM REACTIONS

 Cp, KJ/(KG)(K)   23.8121  23.7969  23.7821  23.7679  23.7542  23.7409  23.7281  23.7158
 CONDUCTIVITY     28.0815  28.0771  28.0732  28.0697  28.0668  28.0644  28.0624  28.0609
 PRANDTL NUMBER    0.6745   0.6749   0.6753   0.6757   0.6762   0.6766   0.6770   0.6774

  WITH FROZEN REACTIONS

 Cp, KJ/(KG)(K)   20.6445  20.6446  20.6448  20.6449  20.6451  20.6453  20.6454  20.6456
 CONDUCTIVITY     24.5726  24.6016  24.6305  24.6595  24.6885  24.7175  24.7465  24.7755
 PRANDTL NUMBER    0.6683   0.6682   0.6682   0.6681   0.6681   0.6680   0.6680   0.6679

 MASS FRACTIONS

 *H               0.98923  0.98932  0.98941  0.98950  0.98959  0.98968  0.98976  0.98985
 *H+              0.00040  0.00040  0.00041  0.00042  0.00042  0.00043  0.00044  0.00044
 *H2              0.01037  0.01027  0.01017  0.01008  0.00998  0.00989  0.00979  0.00970

  * THERMODYNAMIC PROPERTIES FITTED TO 20000.K

 NOTE. WEIGHT FRACTION OF FUEL IN TOTAL FUELS AND OF OXIDANT IN TOTAL OXIDANTS









               THERMODYNAMIC EQUILIBRIUM PROPERTIES AT ASSIGNED

                           TEMPERATURE AND PRESSURE

 CASE =                

             REACTANT                    WT FRACTION      ENERGY      TEMP
                                          (SEE NOTE)     KJ/KG-MOL      K  
 FUEL        H2                           1.0000000         0.000      0.000
 OXIDANT     H2                           1.0000000         0.000      0.000

 O/F=    1.00000  %FUEL= 50.000000  R,EQ.RATIO= 0.000000  PHI,EQ.RATIO=-1.000000

 THERMODYNAMIC PROPERTIES

 P, BAR            10.000   10.000   11.000   11.000   11.000   11.000   11.000   11.000
 T, K             7680.00  7690.00  7550.00  7560.00  7570.00  7580.00  7590.00  7600.00
 RHO, KG/CU M    1.5854-2 1.5832-2 1.7762-2 1.7737-2 1.7713-2 1.7688-2 1.7664-2 1.7640-2
 H, KJ/KG        366958.1 367195.1 363593.8 363834.5 364075.1 364315.5 364555.7 364795.7
 U, KJ/KG        303881.8 304033.4 301663.9 301818.7 301973.4 302127.9 302282.2 302436.4
 G, KJ/KG       -874612.4-876229.2-847718.3-849322.9-850927.7-852532.9-854138.4-855744.2
 S, KJ/(KG)(K)   161.6628 161.6937 160.4387 160.4706 160.5024 160.5341 160.5658 160.5974

 M, (1/n)           1.012    1.012    1.014    1.014    1.014    1.013    1.013    1.013
 (dLV/dLP)t      -1.00499 -1.00495 -1.00608 -1.00603 -1.00598 -1.00593 -1.00587 -1.00582
 (dLV/dLT)p        1.0398   1.0396   1.0478   1.0474   1.0470   1.0466   1.0462   1.0458
 Cp, KJ/(KG)(K)   23.7040  23.6926  24.0893  24.0682  24.0477  24.0278  24.0084  23.9896
 GAMMAs            1.5864   1.5865   1.5817   1.5819   1.5822   1.5825   1.5827   1.5829
 SON VEL,M/SEC    10003.3  10010.3   9897.1   9904.8   9912.5   9920.2   9927.8   9935.4

 TRANSPORT PROPERTIES (GASES ONLY)
   CONDUCTIVITY IN UNITS OF MILLIWATTS/(CM)(K)

 VISC,MILLIPOISE  0.80240  0.80327  0.79210  0.79297  0.79383  0.79470  0.79556  0.79643

  WITH EQUILIBRIUM REACTIONS

 Cp, KJ/(KG)(K)   23.7040  23.6926  24.0893  24.0682  24.0477  24.0278  24.0084  23.9896
 CONDUCTIVITY     28.0598  28.0593  28.4616  28.4508  28.4405  28.4308  28.4217  28.4131
 PRANDTL NUMBER    0.6778   0.6783   0.6704   0.6708   0.6712   0.6716   0.6720   0.6724

  WITH FROZEN REACTIONS

 Cp, KJ/(KG)(K)   20.6457  20.6459  20.6435  20.6436  20.6438  20.6439  20.6441  20.6442
 CONDUCTIVITY     24.8045  24.8335  24.4447  24.4736  24.5024  24.5312  24.5601  24.5889
 PRANDTL NUMBER    0.6679   0.6678   0.6689   0.6689   0.6688   0.6688   0.6687   0.6687

 MASS FRACTIONS

 *H               0.98993  0.99001  0.98770  0.98781  0.98791  0.98802  0.98813  0.98823
 *H+              0.00045  0.00046  0.00035  0.00036  0.00036  0.00037  0.00037  0.00038
 *H2              0.00961  0.00952  0.01194  0.01183  0.01172  0.01161  0.01149  0.01139

  * THERMODYNAMIC PROPERTIES FITTED TO 20000.K

 NOTE. WEIGHT FRACTION OF FUEL IN TOTAL FUELS AND OF OXIDANT IN TOTAL OXIDANTS









               THERMODYNAMIC EQUILIBRIUM PROPERTIES AT ASSIGNED

                           TEMPERATURE AND PRESSURE

 CASE =                

             REACTANT                    WT FRACTION      ENERGY      TEMP
                                          (SEE NOTE)     KJ/KG-MOL      K  
 FUEL        H2                           1.0000000         0.000      0.000
 OXIDANT     H2                           1.0000000         0.000      0.000

 O/F=    1.00000  %FUEL= 50.000000  R,EQ.RATIO= 0.000000  PHI,EQ.RATIO=-1.000000

 THERMODYNAMIC PROPERTIES

 P, BAR            11.000   11.000   11.000   11.000   11.000   11.000   11.000   11.000
 T, K             7610.00  7620.00  7630.00  7640.00  7650.00  7660.00  7670.00  7680.00
 RHO, KG/CU M    1.7615-2 1.7591-2 1.7567-2 1.7543-2 1.7519-2 1.7495-2 1.7472-2 1.7448-2
 H, KJ/KG        365035.5 365275.1 365514.5 365753.8 365992.9 366231.9 366470.7 366709.3
 U, KJ/KG        302590.4 302744.3 302898.0 303051.5 303204.9 303358.2 303511.4 303664.4
 G, KJ/KG       -857350.3-858956.8-860563.6-862170.6-863778.0-865385.7-866993.7-868602.0
 S, KJ/(KG)(K)   160.6289 160.6604 160.6918 160.7231 160.7544 160.7856 160.8167 160.8478

 M, (1/n)           1.013    1.013    1.013    1.013    1.013    1.013    1.013    1.013
 (dLV/dLP)t      -1.00577 -1.00573 -1.00568 -1.00563 -1.00558 -1.00554 -1.00549 -1.00544
 (dLV/dLT)p        1.0454   1.0451   1.0447   1.0443   1.0440   1.0437   1.0433   1.0430
 Cp, KJ/(KG)(K)   23.9712  23.9534  23.9362  23.9194  23.9032  23.8874  23.8722  23.8574
 GAMMAs            1.5832   1.5834   1.5836   1.5838   1.5839   1.5841   1.5843   1.5844
 SON VEL,M/SEC     9942.9   9950.4   9957.8   9965.2   9972.6   9979.9   9987.2   9994.5

 TRANSPORT PROPERTIES (GASES ONLY)
   CONDUCTIVITY IN UNITS OF MILLIWATTS/(CM)(K)

 VISC,MILLIPOISE  0.79729  0.79816  0.79902  0.79989  0.80076  0.80162  0.80249  0.80335

  WITH EQUILIBRIUM REACTIONS

 Cp, KJ/(KG)(K)   23.9712  23.9534  23.9362  23.9194  23.9032  23.8874  23.8722  23.8574
 CONDUCTIVITY     28.4051  28.3976  28.3907  28.3843  28.3784  28.3731  28.3682  28.3639
 PRANDTL NUMBER    0.6728   0.6732   0.6737   0.6741   0.6745   0.6749   0.6753   0.6757

  WITH FROZEN REACTIONS

 Cp, KJ/(KG)(K)   20.6444  20.6445  20.6447  20.6448  20.6450  20.6451  20.6453  20.6454
 CONDUCTIVITY     24.6178  24.6467  24.6756  24.7044  24.7334  24.7623  24.7912  24.8201
 PRANDTL NUMBER    0.6686   0.6686   0.6685   0.6684   0.6684   0.6683   0.6683   0.6682

 MASS FRACTIONS

 *H               0.98833  0.98843  0.98853  0.98863  0.98872  0.98882  0.98891  0.98901
 *H+              0.00038  0.00039  0.00040  0.00040  0.00041  0.00042  0.00042  0.00043
 *H2              0.01128  0.01117  0.01107  0.01096  0.01086  0.01076  0.01066  0.01056

  * THERMODYNAMIC PROPERTIES FITTED TO 20000.K

 NOTE. WEIGHT FRACTION OF FUEL IN TOTAL FUELS AND OF OXIDANT IN TOTAL OXIDANTS









               THERMODYNAMIC EQUILIBRIUM PROPERTIES AT ASSIGNED

                           TEMPERATURE AND PRESSURE

 CASE =                

             REACTANT                    WT FRACTION      ENERGY      TEMP
                                          (SEE NOTE)     KJ/KG-MOL      K  
 FUEL        H2                           1.0000000         0.000      0.000
 OXIDANT     H2                           1.0000000         0.000      0.000

 O/F=    1.00000  %FUEL= 50.000000  R,EQ.RATIO= 0.000000  PHI,EQ.RATIO=-1.000000

 THERMODYNAMIC PROPERTIES

 P, BAR            11.000
 T, K             7690.00
 RHO, KG/CU M    1.7424-2
 H, KJ/KG        366947.8
 U, KJ/KG        303817.3
 G, KJ/KG       -870210.7
 S, KJ/(KG)(K)   160.8789

 M, (1/n)           1.013
 (dLV/dLP)t      -1.00540
 (dLV/dLT)p        1.0426
 Cp, KJ/(KG)(K)   23.8432
 GAMMAs            1.5845
 SON VEL,M/SEC    10001.7

 TRANSPORT PROPERTIES (GASES ONLY)
   CONDUCTIVITY IN UNITS OF MILLIWATTS/(CM)(K)

 VISC,MILLIPOISE  0.80422

  WITH EQUILIBRIUM REACTIONS

 Cp, KJ/(KG)(K)   23.8432
 CONDUCTIVITY     28.3600
 PRANDTL NUMBER    0.6761

  WITH FROZEN REACTIONS

 Cp, KJ/(KG)(K)   20.6455
 CONDUCTIVITY     24.8490
 PRANDTL NUMBER    0.6682

 MASS FRACTIONS

 *H               0.98910
 *H+              0.00043
 *H2              0.01046

  * THERMODYNAMIC PROPERTIES FITTED TO 20000.K

 NOTE. WEIGHT FRACTION OF FUEL IN TOTAL FUELS AND OF OXIDANT IN TOTAL OXIDANTS



  
