
 *******************************************************************************

         NASA-GLENN CHEMICAL EQUILIBRIUM PROGRAM CEA2, MAY 21, 2004
                   BY  BONNIE MCBRIDE AND SANFORD GORDON
      REFS: NASA RP-1311, PART I, 1994 AND NASA RP-1311, PART II, 1996

 *******************************************************************************



  prob tp ions
  p,bar= 60.0,67.0,74.0,82.5,91.0,100.0,110.0,120.0,132.0,148.0,165.0,180.0,200.0
 ,225.0,250.0
  t,k= 750,755,760,765,770,775,780,785,790,795,800,805,810,815,820
  
  
  reac
  fuel H2                wt%=100.0000
  oxid H2                wt%=100.0000
  
  output short
  
  output massf
  
  output siunits
  
  output transport
  
 end





               THERMODYNAMIC EQUILIBRIUM PROPERTIES AT ASSIGNED

                           TEMPERATURE AND PRESSURE

 CASE =                

             REACTANT                    WT FRACTION      ENERGY      TEMP
                                          (SEE NOTE)     KJ/KG-MOL      K  
 FUEL        H2                           1.0000000         0.000      0.000
 OXIDANT     H2                           1.0000000         0.000      0.000

 O/F=    1.00000  %FUEL= 50.000000  R,EQ.RATIO= 0.000000  PHI,EQ.RATIO=-1.000000

 THERMODYNAMIC PROPERTIES

 P, BAR            60.000   60.000   60.000   60.000   60.000   60.000   60.000   60.000
 T, K              750.00   755.00   760.00   765.00   770.00   775.00   780.00   785.00
 RHO, KG/CU M    1.9396 0 1.9268 0 1.9141 0 1.9016 0 1.8893 0 1.8771 0 1.8650 0 1.8532 0
 H, KJ/KG         6559.21  6632.46  6705.74  6779.04  6852.36  6925.71  6999.09  7072.49
 U, KJ/KG         3465.83  3518.47  3571.12  3623.80  3676.51  3729.23  3781.98  3834.76
 G, KJ/KG        -39425.2 -39731.9 -40039.2 -40347.0 -40655.2 -40963.9 -41273.1 -41582.8
 S, KJ/(KG)(K)    61.3125  61.4098  61.5065  61.6026  61.6981  61.7931  61.8875  61.9813

 M, (1/n)           2.016    2.016    2.016    2.016    2.016    2.016    2.016    2.016
 (dLV/dLP)t      -1.00000 -1.00000 -1.00000 -1.00000 -1.00000 -1.00000 -1.00000 -1.00000
 (dLV/dLT)p        1.0000   1.0000   1.0000   1.0000   1.0000   1.0000   1.0000   1.0000
 Cp, KJ/(KG)(K)   14.6486  14.6532  14.6579  14.6627  14.6675  14.6724  14.6774  14.6824
 GAMMAs            1.3919   1.3917   1.3916   1.3914   1.3912   1.3910   1.3908   1.3907
 SON VEL,M/SEC     2075.0   2081.8   2088.5   2095.3   2102.0   2108.6   2115.3   2121.9

 TRANSPORT PROPERTIES (GASES ONLY)
   CONDUCTIVITY IN UNITS OF MILLIWATTS/(CM)(K)

 VISC,MILLIPOISE  0.16789  0.16867  0.16945  0.17023  0.17101  0.17179  0.17256  0.17334

  WITH EQUILIBRIUM REACTIONS

 Cp, KJ/(KG)(K)   14.6486  14.6532  14.6579  14.6627  14.6675  14.6724  14.6774  14.6824
 CONDUCTIVITY      3.5645   3.5821   3.5996   3.6172   3.6347   3.6523   3.6698   3.6874
 PRANDTL NUMBER    0.6900   0.6900   0.6900   0.6901   0.6901   0.6901   0.6902   0.6902

  WITH FROZEN REACTIONS

 Cp, KJ/(KG)(K)   14.6486  14.6532  14.6579  14.6627  14.6675  14.6724  14.6774  14.6824
 CONDUCTIVITY      3.5645   3.5821   3.5996   3.6172   3.6347   3.6523   3.6698   3.6874
 PRANDTL NUMBER    0.6900   0.6900   0.6900   0.6901   0.6901   0.6901   0.6902   0.6902

 MASS FRACTIONS

 *H2              1.00000  1.00000  1.00000  1.00000  1.00000  1.00000  1.00000  1.00000

  * THERMODYNAMIC PROPERTIES FITTED TO 20000.K

 NOTE. WEIGHT FRACTION OF FUEL IN TOTAL FUELS AND OF OXIDANT IN TOTAL OXIDANTS









               THERMODYNAMIC EQUILIBRIUM PROPERTIES AT ASSIGNED

                           TEMPERATURE AND PRESSURE

 CASE =                

             REACTANT                    WT FRACTION      ENERGY      TEMP
                                          (SEE NOTE)     KJ/KG-MOL      K  
 FUEL        H2                           1.0000000         0.000      0.000
 OXIDANT     H2                           1.0000000         0.000      0.000

 O/F=    1.00000  %FUEL= 50.000000  R,EQ.RATIO= 0.000000  PHI,EQ.RATIO=-1.000000

 THERMODYNAMIC PROPERTIES

 P, BAR            60.000   60.000   60.000   60.000   60.000   60.000   60.000   67.000
 T, K              790.00   795.00   800.00   805.00   810.00   815.00   820.00   750.00
 RHO, KG/CU M    1.8414 0 1.8298 0 1.8184 0 1.8071 0 1.7960 0 1.7849 0 1.7741 0 2.1659 0
 H, KJ/KG         7145.91  7219.36  7292.84  7366.34  7439.87  7513.43  7587.01  6559.21
 U, KJ/KG         3887.56  3940.39  3993.25  4046.13  4099.03  4151.97  4204.93  3465.84
 G, KJ/KG        -41892.9 -42203.6 -42514.6 -42826.1 -43138.1 -43450.6 -43763.5 -39083.8
 S, KJ/(KG)(K)    62.0745  62.1672  62.2593  62.3509  62.4420  62.5325  62.6225  60.8573

 M, (1/n)           2.016    2.016    2.016    2.016    2.016    2.016    2.016    2.016
 (dLV/dLP)t      -1.00000 -1.00000 -1.00000 -1.00000 -1.00000 -1.00000 -1.00000 -1.00000
 (dLV/dLT)p        1.0000   1.0000   1.0000   1.0000   1.0000   1.0000   1.0000   1.0000
 Cp, KJ/(KG)(K)   14.6875  14.6927  14.6979  14.7032  14.7086  14.7141  14.7196  14.6486
 GAMMAs            1.3905   1.3903   1.3901   1.3899   1.3897   1.3895   1.3893   1.3919
 SON VEL,M/SEC     2128.5   2135.1   2141.7   2148.2   2154.7   2161.2   2167.6   2075.0

 TRANSPORT PROPERTIES (GASES ONLY)
   CONDUCTIVITY IN UNITS OF MILLIWATTS/(CM)(K)

 VISC,MILLIPOISE  0.17411  0.17488  0.17565  0.17642  0.17719  0.17796  0.17872  0.16789

  WITH EQUILIBRIUM REACTIONS

 Cp, KJ/(KG)(K)   14.6875  14.6927  14.6979  14.7032  14.7086  14.7141  14.7196  14.6486
 CONDUCTIVITY      3.7049   3.7224   3.7399   3.7575   3.7750   3.7925   3.8100   3.5645
 PRANDTL NUMBER    0.6902   0.6903   0.6903   0.6904   0.6904   0.6904   0.6905   0.6900

  WITH FROZEN REACTIONS

 Cp, KJ/(KG)(K)   14.6875  14.6927  14.6979  14.7032  14.7086  14.7141  14.7196  14.6486
 CONDUCTIVITY      3.7049   3.7224   3.7399   3.7575   3.7750   3.7925   3.8100   3.5645
 PRANDTL NUMBER    0.6902   0.6903   0.6903   0.6904   0.6904   0.6904   0.6905   0.6900

 MASS FRACTIONS

 *H2              1.00000  1.00000  1.00000  1.00000  1.00000  1.00000  1.00000  1.00000

  * THERMODYNAMIC PROPERTIES FITTED TO 20000.K

 NOTE. WEIGHT FRACTION OF FUEL IN TOTAL FUELS AND OF OXIDANT IN TOTAL OXIDANTS









               THERMODYNAMIC EQUILIBRIUM PROPERTIES AT ASSIGNED

                           TEMPERATURE AND PRESSURE

 CASE =                

             REACTANT                    WT FRACTION      ENERGY      TEMP
                                          (SEE NOTE)     KJ/KG-MOL      K  
 FUEL        H2                           1.0000000         0.000      0.000
 OXIDANT     H2                           1.0000000         0.000      0.000

 O/F=    1.00000  %FUEL= 50.000000  R,EQ.RATIO= 0.000000  PHI,EQ.RATIO=-1.000000

 THERMODYNAMIC PROPERTIES

 P, BAR            67.000   67.000   67.000   67.000   67.000   67.000   67.000   67.000
 T, K              755.00   760.00   765.00   770.00   775.00   780.00   785.00   790.00
 RHO, KG/CU M    2.1516 0 2.1374 0 2.1235 0 2.1097 0 2.0961 0 2.0826 0 2.0694 0 2.0563 0
 H, KJ/KG         6632.46  6705.74  6779.04  6852.36  6925.71  6999.09  7072.49  7145.91
 U, KJ/KG         3518.47  3571.12  3623.80  3676.51  3729.23  3781.98  3834.76  3887.56
 G, KJ/KG        -39388.3 -39693.3 -39998.8 -40304.8 -40611.2 -40918.1 -41225.5 -41533.4
 S, KJ/(KG)(K)    60.9546  61.0513  61.1475  61.2430  61.3380  61.4323  61.5261  61.6194

 M, (1/n)           2.016    2.016    2.016    2.016    2.016    2.016    2.016    2.016
 (dLV/dLP)t      -1.00000 -1.00000 -1.00000 -1.00000 -1.00000 -1.00000 -1.00000 -1.00000
 (dLV/dLT)p        1.0000   1.0000   1.0000   1.0000   1.0000   1.0000   1.0000   1.0000
 Cp, KJ/(KG)(K)   14.6532  14.6579  14.6627  14.6675  14.6724  14.6774  14.6824  14.6875
 GAMMAs            1.3917   1.3916   1.3914   1.3912   1.3910   1.3908   1.3907   1.3905
 SON VEL,M/SEC     2081.8   2088.5   2095.3   2102.0   2108.6   2115.3   2121.9   2128.5

 TRANSPORT PROPERTIES (GASES ONLY)
   CONDUCTIVITY IN UNITS OF MILLIWATTS/(CM)(K)

 VISC,MILLIPOISE  0.16867  0.16945  0.17023  0.17101  0.17179  0.17256  0.17334  0.17411

  WITH EQUILIBRIUM REACTIONS

 Cp, KJ/(KG)(K)   14.6532  14.6579  14.6627  14.6675  14.6724  14.6774  14.6824  14.6875
 CONDUCTIVITY      3.5821   3.5996   3.6172   3.6347   3.6523   3.6698   3.6874   3.7049
 PRANDTL NUMBER    0.6900   0.6900   0.6901   0.6901   0.6901   0.6902   0.6902   0.6902

  WITH FROZEN REACTIONS

 Cp, KJ/(KG)(K)   14.6532  14.6579  14.6627  14.6675  14.6724  14.6774  14.6824  14.6875
 CONDUCTIVITY      3.5821   3.5996   3.6172   3.6347   3.6523   3.6698   3.6874   3.7049
 PRANDTL NUMBER    0.6900   0.6900   0.6901   0.6901   0.6901   0.6902   0.6902   0.6902

 MASS FRACTIONS

 *H2              1.00000  1.00000  1.00000  1.00000  1.00000  1.00000  1.00000  1.00000

  * THERMODYNAMIC PROPERTIES FITTED TO 20000.K

 NOTE. WEIGHT FRACTION OF FUEL IN TOTAL FUELS AND OF OXIDANT IN TOTAL OXIDANTS









               THERMODYNAMIC EQUILIBRIUM PROPERTIES AT ASSIGNED

                           TEMPERATURE AND PRESSURE

 CASE =                

             REACTANT                    WT FRACTION      ENERGY      TEMP
                                          (SEE NOTE)     KJ/KG-MOL      K  
 FUEL        H2                           1.0000000         0.000      0.000
 OXIDANT     H2                           1.0000000         0.000      0.000

 O/F=    1.00000  %FUEL= 50.000000  R,EQ.RATIO= 0.000000  PHI,EQ.RATIO=-1.000000

 THERMODYNAMIC PROPERTIES

 P, BAR            67.000   67.000   67.000   67.000   67.000   67.000   74.000   74.000
 T, K              795.00   800.00   805.00   810.00   815.00   820.00   750.00   755.00
 RHO, KG/CU M    2.0433 0 2.0306 0 2.0179 0 2.0055 0 1.9932 0 1.9810 0 2.3922 0 2.3764 0
 H, KJ/KG         7219.36  7292.84  7366.34  7439.87  7513.43  7587.01  6559.21  6632.46
 U, KJ/KG         3940.39  3993.25  4046.13  4099.03  4151.97  4204.93  3465.84  3518.47
 G, KJ/KG        -41841.7 -42150.5 -42459.8 -42769.5 -43079.6 -43390.2 -38776.4 -39078.8
 S, KJ/(KG)(K)    61.7121  61.8042  61.8958  61.9868  62.0774  62.1674  60.4474  60.5448

 M, (1/n)           2.016    2.016    2.016    2.016    2.016    2.016    2.016    2.016
 (dLV/dLP)t      -1.00000 -1.00000 -1.00000 -1.00000 -1.00000 -1.00000 -1.00000 -1.00000
 (dLV/dLT)p        1.0000   1.0000   1.0000   1.0000   1.0000   1.0000   1.0000   1.0000
 Cp, KJ/(KG)(K)   14.6927  14.6979  14.7032  14.7086  14.7141  14.7196  14.6486  14.6532
 GAMMAs            1.3903   1.3901   1.3899   1.3897   1.3895   1.3893   1.3919   1.3917
 SON VEL,M/SEC     2135.1   2141.7   2148.2   2154.7   2161.2   2167.6   2075.0   2081.8

 TRANSPORT PROPERTIES (GASES ONLY)
   CONDUCTIVITY IN UNITS OF MILLIWATTS/(CM)(K)

 VISC,MILLIPOISE  0.17488  0.17565  0.17642  0.17719  0.17796  0.17872  0.16789  0.16867

  WITH EQUILIBRIUM REACTIONS

 Cp, KJ/(KG)(K)   14.6927  14.6979  14.7032  14.7086  14.7141  14.7196  14.6486  14.6532
 CONDUCTIVITY      3.7224   3.7399   3.7575   3.7750   3.7925   3.8100   3.5645   3.5821
 PRANDTL NUMBER    0.6903   0.6903   0.6904   0.6904   0.6904   0.6905   0.6900   0.6900

  WITH FROZEN REACTIONS

 Cp, KJ/(KG)(K)   14.6927  14.6979  14.7032  14.7086  14.7141  14.7196  14.6486  14.6532
 CONDUCTIVITY      3.7224   3.7399   3.7575   3.7750   3.7925   3.8100   3.5645   3.5821
 PRANDTL NUMBER    0.6903   0.6903   0.6904   0.6904   0.6904   0.6905   0.6900   0.6900

 MASS FRACTIONS

 *H2              1.00000  1.00000  1.00000  1.00000  1.00000  1.00000  1.00000  1.00000

  * THERMODYNAMIC PROPERTIES FITTED TO 20000.K

 NOTE. WEIGHT FRACTION OF FUEL IN TOTAL FUELS AND OF OXIDANT IN TOTAL OXIDANTS









               THERMODYNAMIC EQUILIBRIUM PROPERTIES AT ASSIGNED

                           TEMPERATURE AND PRESSURE

 CASE =                

             REACTANT                    WT FRACTION      ENERGY      TEMP
                                          (SEE NOTE)     KJ/KG-MOL      K  
 FUEL        H2                           1.0000000         0.000      0.000
 OXIDANT     H2                           1.0000000         0.000      0.000

 O/F=    1.00000  %FUEL= 50.000000  R,EQ.RATIO= 0.000000  PHI,EQ.RATIO=-1.000000

 THERMODYNAMIC PROPERTIES

 P, BAR            74.000   74.000   74.000   74.000   74.000   74.000   74.000   74.000
 T, K              760.00   765.00   770.00   775.00   780.00   785.00   790.00   795.00
 RHO, KG/CU M    2.3607 0 2.3453 0 2.3301 0 2.3150 0 2.3002 0 2.2856 0 2.2711 0 2.2568 0
 H, KJ/KG         6705.74  6779.04  6852.36  6925.71  6999.09  7072.49  7145.91  7219.36
 U, KJ/KG         3571.12  3623.80  3676.51  3729.23  3781.98  3834.76  3887.56  3940.39
 G, KJ/KG        -39381.8 -39685.2 -39989.2 -40293.6 -40598.4 -40903.8 -41209.6 -41515.9
 S, KJ/(KG)(K)    60.6415  60.7376  60.8331  60.9281  61.0225  61.1163  61.2095  61.3022

 M, (1/n)           2.016    2.016    2.016    2.016    2.016    2.016    2.016    2.016
 (dLV/dLP)t      -1.00000 -1.00000 -1.00000 -1.00000 -1.00000 -1.00000 -1.00000 -1.00000
 (dLV/dLT)p        1.0000   1.0000   1.0000   1.0000   1.0000   1.0000   1.0000   1.0000
 Cp, KJ/(KG)(K)   14.6579  14.6627  14.6675  14.6724  14.6774  14.6824  14.6875  14.6927
 GAMMAs            1.3916   1.3914   1.3912   1.3910   1.3908   1.3907   1.3905   1.3903
 SON VEL,M/SEC     2088.5   2095.3   2102.0   2108.6   2115.3   2121.9   2128.5   2135.1

 TRANSPORT PROPERTIES (GASES ONLY)
   CONDUCTIVITY IN UNITS OF MILLIWATTS/(CM)(K)

 VISC,MILLIPOISE  0.16945  0.17023  0.17101  0.17179  0.17256  0.17334  0.17411  0.17488

  WITH EQUILIBRIUM REACTIONS

 Cp, KJ/(KG)(K)   14.6579  14.6627  14.6675  14.6724  14.6774  14.6824  14.6875  14.6927
 CONDUCTIVITY      3.5996   3.6172   3.6347   3.6523   3.6698   3.6874   3.7049   3.7224
 PRANDTL NUMBER    0.6900   0.6901   0.6901   0.6901   0.6902   0.6902   0.6902   0.6903

  WITH FROZEN REACTIONS

 Cp, KJ/(KG)(K)   14.6579  14.6627  14.6675  14.6724  14.6774  14.6824  14.6875  14.6927
 CONDUCTIVITY      3.5996   3.6172   3.6347   3.6523   3.6698   3.6874   3.7049   3.7224
 PRANDTL NUMBER    0.6900   0.6901   0.6901   0.6901   0.6902   0.6902   0.6902   0.6903

 MASS FRACTIONS

 *H2              1.00000  1.00000  1.00000  1.00000  1.00000  1.00000  1.00000  1.00000

  * THERMODYNAMIC PROPERTIES FITTED TO 20000.K

 NOTE. WEIGHT FRACTION OF FUEL IN TOTAL FUELS AND OF OXIDANT IN TOTAL OXIDANTS









               THERMODYNAMIC EQUILIBRIUM PROPERTIES AT ASSIGNED

                           TEMPERATURE AND PRESSURE

 CASE =                

             REACTANT                    WT FRACTION      ENERGY      TEMP
                                          (SEE NOTE)     KJ/KG-MOL      K  
 FUEL        H2                           1.0000000         0.000      0.000
 OXIDANT     H2                           1.0000000         0.000      0.000

 O/F=    1.00000  %FUEL= 50.000000  R,EQ.RATIO= 0.000000  PHI,EQ.RATIO=-1.000000

 THERMODYNAMIC PROPERTIES

 P, BAR            74.000   74.000   74.000   74.000   74.000   82.500   82.500   82.500
 T, K              800.00   805.00   810.00   815.00   820.00   750.00   755.00   760.00
 RHO, KG/CU M    2.2427 0 2.2288 0 2.2150 0 2.2014 0 2.1880 0 2.6670 0 2.6493 0 2.6319 0
 H, KJ/KG         7292.84  7366.34  7439.87  7513.43  7587.01  6559.21  6632.46  6705.74
 U, KJ/KG         3993.25  4046.13  4099.03  4151.97  4204.93  3465.84  3518.47  3571.12
 G, KJ/KG        -41822.6 -42129.8 -42437.5 -42745.6 -43054.2 -38440.0 -38740.2 -39041.0
 S, KJ/(KG)(K)    61.3943  61.4859  61.5770  61.6675  61.7575  59.9990  60.0963  60.1930

 M, (1/n)           2.016    2.016    2.016    2.016    2.016    2.016    2.016    2.016
 (dLV/dLP)t      -1.00000 -1.00000 -1.00000 -1.00000 -1.00000 -1.00000 -1.00000 -1.00000
 (dLV/dLT)p        1.0000   1.0000   1.0000   1.0000   1.0000   1.0000   1.0000   1.0000
 Cp, KJ/(KG)(K)   14.6979  14.7032  14.7086  14.7141  14.7196  14.6486  14.6532  14.6579
 GAMMAs            1.3901   1.3899   1.3897   1.3895   1.3893   1.3919   1.3917   1.3916
 SON VEL,M/SEC     2141.7   2148.2   2154.7   2161.2   2167.6   2075.0   2081.8   2088.5

 TRANSPORT PROPERTIES (GASES ONLY)
   CONDUCTIVITY IN UNITS OF MILLIWATTS/(CM)(K)

 VISC,MILLIPOISE  0.17565  0.17642  0.17719  0.17796  0.17872  0.16789  0.16867  0.16945

  WITH EQUILIBRIUM REACTIONS

 Cp, KJ/(KG)(K)   14.6979  14.7032  14.7086  14.7141  14.7196  14.6486  14.6532  14.6579
 CONDUCTIVITY      3.7399   3.7575   3.7750   3.7925   3.8100   3.5645   3.5821   3.5996
 PRANDTL NUMBER    0.6903   0.6904   0.6904   0.6904   0.6905   0.6900   0.6900   0.6900

  WITH FROZEN REACTIONS

 Cp, KJ/(KG)(K)   14.6979  14.7032  14.7086  14.7141  14.7196  14.6486  14.6532  14.6579
 CONDUCTIVITY      3.7399   3.7575   3.7750   3.7925   3.8100   3.5645   3.5821   3.5996
 PRANDTL NUMBER    0.6903   0.6904   0.6904   0.6904   0.6905   0.6900   0.6900   0.6900

 MASS FRACTIONS

 *H2              1.00000  1.00000  1.00000  1.00000  1.00000  1.00000  1.00000  1.00000

  * THERMODYNAMIC PROPERTIES FITTED TO 20000.K

 NOTE. WEIGHT FRACTION OF FUEL IN TOTAL FUELS AND OF OXIDANT IN TOTAL OXIDANTS









               THERMODYNAMIC EQUILIBRIUM PROPERTIES AT ASSIGNED

                           TEMPERATURE AND PRESSURE

 CASE =                

             REACTANT                    WT FRACTION      ENERGY      TEMP
                                          (SEE NOTE)     KJ/KG-MOL      K  
 FUEL        H2                           1.0000000         0.000      0.000
 OXIDANT     H2                           1.0000000         0.000      0.000

 O/F=    1.00000  %FUEL= 50.000000  R,EQ.RATIO= 0.000000  PHI,EQ.RATIO=-1.000000

 THERMODYNAMIC PROPERTIES

 P, BAR            82.500   82.500   82.500   82.500   82.500   82.500   82.500   82.500
 T, K              765.00   770.00   775.00   780.00   785.00   790.00   795.00   800.00
 RHO, KG/CU M    2.6147 0 2.5977 0 2.5810 0 2.5644 0 2.5481 0 2.5320 0 2.5160 0 2.5003 0
 H, KJ/KG         6779.04  6852.36  6925.71  6999.09  7072.49  7145.91  7219.36  7292.84
 U, KJ/KG         3623.80  3676.51  3729.23  3781.98  3834.76  3887.56  3940.39  3993.25
 G, KJ/KG        -39342.2 -39643.8 -39946.0 -40248.6 -40551.7 -40855.3 -41159.3 -41463.8
 S, KJ/(KG)(K)    60.2891  60.3847  60.4796  60.5740  60.6678  60.7610  60.8537  60.9459

 M, (1/n)           2.016    2.016    2.016    2.016    2.016    2.016    2.016    2.016
 (dLV/dLP)t      -1.00000 -1.00000 -1.00000 -1.00000 -1.00000 -1.00000 -1.00000 -1.00000
 (dLV/dLT)p        1.0000   1.0000   1.0000   1.0000   1.0000   1.0000   1.0000   1.0000
 Cp, KJ/(KG)(K)   14.6627  14.6675  14.6724  14.6774  14.6824  14.6875  14.6927  14.6979
 GAMMAs            1.3914   1.3912   1.3910   1.3908   1.3907   1.3905   1.3903   1.3901
 SON VEL,M/SEC     2095.3   2102.0   2108.6   2115.3   2121.9   2128.5   2135.1   2141.7

 TRANSPORT PROPERTIES (GASES ONLY)
   CONDUCTIVITY IN UNITS OF MILLIWATTS/(CM)(K)

 VISC,MILLIPOISE  0.17023  0.17101  0.17179  0.17256  0.17334  0.17411  0.17488  0.17565

  WITH EQUILIBRIUM REACTIONS

 Cp, KJ/(KG)(K)   14.6627  14.6675  14.6724  14.6774  14.6824  14.6875  14.6927  14.6979
 CONDUCTIVITY      3.6172   3.6347   3.6523   3.6698   3.6874   3.7049   3.7224   3.7399
 PRANDTL NUMBER    0.6901   0.6901   0.6901   0.6902   0.6902   0.6902   0.6903   0.6903

  WITH FROZEN REACTIONS

 Cp, KJ/(KG)(K)   14.6627  14.6675  14.6724  14.6774  14.6824  14.6875  14.6927  14.6979
 CONDUCTIVITY      3.6172   3.6347   3.6523   3.6698   3.6874   3.7049   3.7224   3.7399
 PRANDTL NUMBER    0.6901   0.6901   0.6901   0.6902   0.6902   0.6902   0.6903   0.6903

 MASS FRACTIONS

 *H2              1.00000  1.00000  1.00000  1.00000  1.00000  1.00000  1.00000  1.00000

  * THERMODYNAMIC PROPERTIES FITTED TO 20000.K

 NOTE. WEIGHT FRACTION OF FUEL IN TOTAL FUELS AND OF OXIDANT IN TOTAL OXIDANTS









               THERMODYNAMIC EQUILIBRIUM PROPERTIES AT ASSIGNED

                           TEMPERATURE AND PRESSURE

 CASE =                

             REACTANT                    WT FRACTION      ENERGY      TEMP
                                          (SEE NOTE)     KJ/KG-MOL      K  
 FUEL        H2                           1.0000000         0.000      0.000
 OXIDANT     H2                           1.0000000         0.000      0.000

 O/F=    1.00000  %FUEL= 50.000000  R,EQ.RATIO= 0.000000  PHI,EQ.RATIO=-1.000000

 THERMODYNAMIC PROPERTIES

 P, BAR            82.500   82.500   82.500   82.500   91.000   91.000   91.000   91.000
 T, K              805.00   810.00   815.00   820.00   750.00   755.00   760.00   765.00
 RHO, KG/CU M    2.4848 0 2.4694 0 2.4543 0 2.4393 0 2.9418 0 2.9223 0 2.9031 0 2.8841 0
 H, KJ/KG         7366.34  7439.87  7513.43  7587.01  6559.21  6632.46  6705.74  6779.04
 U, KJ/KG         4046.13  4099.03  4151.97  4204.93  3465.84  3518.47  3571.12  3623.80
 G, KJ/KG        -41768.8 -42074.2 -42380.1 -42686.4 -38136.7 -38434.9 -38733.6 -39032.7
 S, KJ/(KG)(K)    61.0375  61.1285  61.2190  61.3091  59.5945  59.6918  59.7886  59.8847

 M, (1/n)           2.016    2.016    2.016    2.016    2.016    2.016    2.016    2.016
 (dLV/dLP)t      -1.00000 -1.00000 -1.00000 -1.00000 -1.00000 -1.00000 -1.00000 -1.00000
 (dLV/dLT)p        1.0000   1.0000   1.0000   1.0000   1.0000   1.0000   1.0000   1.0000
 Cp, KJ/(KG)(K)   14.7032  14.7086  14.7141  14.7196  14.6486  14.6532  14.6579  14.6627
 GAMMAs            1.3899   1.3897   1.3895   1.3893   1.3919   1.3917   1.3916   1.3914
 SON VEL,M/SEC     2148.2   2154.7   2161.2   2167.6   2075.0   2081.8   2088.5   2095.3

 TRANSPORT PROPERTIES (GASES ONLY)
   CONDUCTIVITY IN UNITS OF MILLIWATTS/(CM)(K)

 VISC,MILLIPOISE  0.17642  0.17719  0.17796  0.17872  0.16789  0.16867  0.16945  0.17023

  WITH EQUILIBRIUM REACTIONS

 Cp, KJ/(KG)(K)   14.7032  14.7086  14.7141  14.7196  14.6486  14.6532  14.6579  14.6627
 CONDUCTIVITY      3.7575   3.7750   3.7925   3.8100   3.5645   3.5821   3.5996   3.6172
 PRANDTL NUMBER    0.6904   0.6904   0.6904   0.6905   0.6900   0.6900   0.6900   0.6901

  WITH FROZEN REACTIONS

 Cp, KJ/(KG)(K)   14.7032  14.7086  14.7141  14.7196  14.6486  14.6532  14.6579  14.6627
 CONDUCTIVITY      3.7575   3.7750   3.7925   3.8100   3.5645   3.5821   3.5996   3.6172
 PRANDTL NUMBER    0.6904   0.6904   0.6904   0.6905   0.6900   0.6900   0.6900   0.6901

 MASS FRACTIONS

 *H2              1.00000  1.00000  1.00000  1.00000  1.00000  1.00000  1.00000  1.00000

  * THERMODYNAMIC PROPERTIES FITTED TO 20000.K

 NOTE. WEIGHT FRACTION OF FUEL IN TOTAL FUELS AND OF OXIDANT IN TOTAL OXIDANTS









               THERMODYNAMIC EQUILIBRIUM PROPERTIES AT ASSIGNED

                           TEMPERATURE AND PRESSURE

 CASE =                

             REACTANT                    WT FRACTION      ENERGY      TEMP
                                          (SEE NOTE)     KJ/KG-MOL      K  
 FUEL        H2                           1.0000000         0.000      0.000
 OXIDANT     H2                           1.0000000         0.000      0.000

 O/F=    1.00000  %FUEL= 50.000000  R,EQ.RATIO= 0.000000  PHI,EQ.RATIO=-1.000000

 THERMODYNAMIC PROPERTIES

 P, BAR            91.000   91.000   91.000   91.000   91.000   91.000   91.000   91.000
 T, K              770.00   775.00   780.00   785.00   790.00   795.00   800.00   805.00
 RHO, KG/CU M    2.8654 0 2.8469 0 2.8286 0 2.8106 0 2.7928 0 2.7753 0 2.7579 0 2.7408 0
 H, KJ/KG         6852.36  6925.71  6999.09  7072.49  7145.91  7219.36  7292.84  7366.34
 U, KJ/KG         3676.51  3729.23  3781.98  3834.76  3887.56  3940.39  3993.25  4046.13
 G, KJ/KG        -39332.4 -39632.5 -39933.2 -40234.2 -40535.8 -40837.8 -41140.3 -41443.2
 S, KJ/(KG)(K)    59.9802  60.0752  60.1695  60.2633  60.3566  60.4493  60.5414  60.6330

 M, (1/n)           2.016    2.016    2.016    2.016    2.016    2.016    2.016    2.016
 (dLV/dLP)t      -1.00000 -1.00000 -1.00000 -1.00000 -1.00000 -1.00000 -1.00000 -1.00000
 (dLV/dLT)p        1.0000   1.0000   1.0000   1.0000   1.0000   1.0000   1.0000   1.0000
 Cp, KJ/(KG)(K)   14.6675  14.6724  14.6774  14.6824  14.6875  14.6927  14.6979  14.7032
 GAMMAs            1.3912   1.3910   1.3908   1.3907   1.3905   1.3903   1.3901   1.3899
 SON VEL,M/SEC     2102.0   2108.6   2115.3   2121.9   2128.5   2135.1   2141.7   2148.2

 TRANSPORT PROPERTIES (GASES ONLY)
   CONDUCTIVITY IN UNITS OF MILLIWATTS/(CM)(K)

 VISC,MILLIPOISE  0.17101  0.17179  0.17256  0.17334  0.17411  0.17488  0.17565  0.17642

  WITH EQUILIBRIUM REACTIONS

 Cp, KJ/(KG)(K)   14.6675  14.6724  14.6774  14.6824  14.6875  14.6927  14.6979  14.7032
 CONDUCTIVITY      3.6347   3.6523   3.6698   3.6874   3.7049   3.7224   3.7399   3.7575
 PRANDTL NUMBER    0.6901   0.6901   0.6902   0.6902   0.6902   0.6903   0.6903   0.6904

  WITH FROZEN REACTIONS

 Cp, KJ/(KG)(K)   14.6675  14.6724  14.6774  14.6824  14.6875  14.6927  14.6979  14.7032
 CONDUCTIVITY      3.6347   3.6523   3.6698   3.6874   3.7049   3.7224   3.7399   3.7575
 PRANDTL NUMBER    0.6901   0.6901   0.6902   0.6902   0.6902   0.6903   0.6903   0.6904

 MASS FRACTIONS

 *H2              1.00000  1.00000  1.00000  1.00000  1.00000  1.00000  1.00000  1.00000

  * THERMODYNAMIC PROPERTIES FITTED TO 20000.K

 NOTE. WEIGHT FRACTION OF FUEL IN TOTAL FUELS AND OF OXIDANT IN TOTAL OXIDANTS









               THERMODYNAMIC EQUILIBRIUM PROPERTIES AT ASSIGNED

                           TEMPERATURE AND PRESSURE

 CASE =                

             REACTANT                    WT FRACTION      ENERGY      TEMP
                                          (SEE NOTE)     KJ/KG-MOL      K  
 FUEL        H2                           1.0000000         0.000      0.000
 OXIDANT     H2                           1.0000000         0.000      0.000

 O/F=    1.00000  %FUEL= 50.000000  R,EQ.RATIO= 0.000000  PHI,EQ.RATIO=-1.000000

 THERMODYNAMIC PROPERTIES

 P, BAR            91.000   91.000   91.000   100.00   100.00   100.00   100.00   100.00
 T, K              810.00   815.00   820.00   750.00   755.00   760.00   765.00   770.00
 RHO, KG/CU M    2.7239 0 2.7072 0 2.6906 0 3.2327 0 3.2113 0 3.1902 0 3.1693 0 3.1488 0
 H, KJ/KG         7439.87  7513.43  7587.01  6559.21  6632.46  6705.74  6779.04  6852.36
 U, KJ/KG         4099.03  4151.97  4204.93  3465.84  3518.47  3571.12  3623.80  3676.51
 G, KJ/KG        -41746.6 -42050.5 -42354.8 -37844.9 -38141.2 -38437.9 -38735.2 -39032.9
 S, KJ/(KG)(K)    60.7241  60.8146  60.9046  59.2055  59.3028  59.3996  59.4957  59.5912

 M, (1/n)           2.016    2.016    2.016    2.016    2.016    2.016    2.016    2.016
 (dLV/dLP)t      -1.00000 -1.00000 -1.00000 -1.00000 -1.00000 -1.00000 -1.00000 -1.00000
 (dLV/dLT)p        1.0000   1.0000   1.0000   1.0000   1.0000   1.0000   1.0000   1.0000
 Cp, KJ/(KG)(K)   14.7086  14.7141  14.7196  14.6486  14.6532  14.6579  14.6627  14.6675
 GAMMAs            1.3897   1.3895   1.3893   1.3919   1.3917   1.3916   1.3914   1.3912
 SON VEL,M/SEC     2154.7   2161.2   2167.6   2075.0   2081.8   2088.5   2095.3   2102.0

 TRANSPORT PROPERTIES (GASES ONLY)
   CONDUCTIVITY IN UNITS OF MILLIWATTS/(CM)(K)

 VISC,MILLIPOISE  0.17719  0.17796  0.17872  0.16789  0.16867  0.16945  0.17023  0.17101

  WITH EQUILIBRIUM REACTIONS

 Cp, KJ/(KG)(K)   14.7086  14.7141  14.7196  14.6486  14.6532  14.6579  14.6627  14.6675
 CONDUCTIVITY      3.7750   3.7925   3.8100   3.5645   3.5821   3.5996   3.6172   3.6347
 PRANDTL NUMBER    0.6904   0.6904   0.6905   0.6900   0.6900   0.6900   0.6901   0.6901

  WITH FROZEN REACTIONS

 Cp, KJ/(KG)(K)   14.7086  14.7141  14.7196  14.6486  14.6532  14.6579  14.6627  14.6675
 CONDUCTIVITY      3.7750   3.7925   3.8100   3.5645   3.5821   3.5996   3.6172   3.6347
 PRANDTL NUMBER    0.6904   0.6904   0.6905   0.6900   0.6900   0.6900   0.6901   0.6901

 MASS FRACTIONS

 *H2              1.00000  1.00000  1.00000  1.00000  1.00000  1.00000  1.00000  1.00000

  * THERMODYNAMIC PROPERTIES FITTED TO 20000.K

 NOTE. WEIGHT FRACTION OF FUEL IN TOTAL FUELS AND OF OXIDANT IN TOTAL OXIDANTS









               THERMODYNAMIC EQUILIBRIUM PROPERTIES AT ASSIGNED

                           TEMPERATURE AND PRESSURE

 CASE =                

             REACTANT                    WT FRACTION      ENERGY      TEMP
                                          (SEE NOTE)     KJ/KG-MOL      K  
 FUEL        H2                           1.0000000         0.000      0.000
 OXIDANT     H2                           1.0000000         0.000      0.000

 O/F=    1.00000  %FUEL= 50.000000  R,EQ.RATIO= 0.000000  PHI,EQ.RATIO=-1.000000

 THERMODYNAMIC PROPERTIES

 P, BAR            100.00   100.00   100.00   100.00   100.00   100.00   100.00   100.00
 T, K              775.00   780.00   785.00   790.00   795.00   800.00   805.00   810.00
 RHO, KG/CU M    3.1284 0 3.1084 0 3.0886 0 3.0690 0 3.0497 0 3.0307 0 3.0119 0 2.9933 0
 H, KJ/KG         6925.71  6999.09  7072.49  7145.91  7219.36  7292.84  7366.34  7439.87
 U, KJ/KG         3729.23  3781.98  3834.76  3887.56  3940.39  3993.25  4046.13  4099.03
 G, KJ/KG        -39331.1 -39629.8 -39928.9 -40228.5 -40528.6 -40829.1 -41130.1 -41431.5
 S, KJ/(KG)(K)    59.6862  59.7806  59.8744  59.9676  60.0603  60.1524  60.2440  60.3351

 M, (1/n)           2.016    2.016    2.016    2.016    2.016    2.016    2.016    2.016
 (dLV/dLP)t      -1.00000 -1.00000 -1.00000 -1.00000 -1.00000 -1.00000 -1.00000 -1.00000
 (dLV/dLT)p        1.0000   1.0000   1.0000   1.0000   1.0000   1.0000   1.0000   1.0000
 Cp, KJ/(KG)(K)   14.6724  14.6774  14.6824  14.6875  14.6927  14.6979  14.7032  14.7086
 GAMMAs            1.3910   1.3908   1.3907   1.3905   1.3903   1.3901   1.3899   1.3897
 SON VEL,M/SEC     2108.6   2115.3   2121.9   2128.5   2135.1   2141.7   2148.2   2154.7

 TRANSPORT PROPERTIES (GASES ONLY)
   CONDUCTIVITY IN UNITS OF MILLIWATTS/(CM)(K)

 VISC,MILLIPOISE  0.17179  0.17256  0.17334  0.17411  0.17488  0.17565  0.17642  0.17719

  WITH EQUILIBRIUM REACTIONS

 Cp, KJ/(KG)(K)   14.6724  14.6774  14.6824  14.6875  14.6927  14.6979  14.7032  14.7086
 CONDUCTIVITY      3.6523   3.6698   3.6874   3.7049   3.7224   3.7399   3.7575   3.7750
 PRANDTL NUMBER    0.6901   0.6902   0.6902   0.6902   0.6903   0.6903   0.6904   0.6904

  WITH FROZEN REACTIONS

 Cp, KJ/(KG)(K)   14.6724  14.6774  14.6824  14.6875  14.6927  14.6979  14.7032  14.7086
 CONDUCTIVITY      3.6523   3.6698   3.6874   3.7049   3.7224   3.7399   3.7575   3.7750
 PRANDTL NUMBER    0.6901   0.6902   0.6902   0.6902   0.6903   0.6903   0.6904   0.6904

 MASS FRACTIONS

 *H2              1.00000  1.00000  1.00000  1.00000  1.00000  1.00000  1.00000  1.00000

  * THERMODYNAMIC PROPERTIES FITTED TO 20000.K

 NOTE. WEIGHT FRACTION OF FUEL IN TOTAL FUELS AND OF OXIDANT IN TOTAL OXIDANTS









               THERMODYNAMIC EQUILIBRIUM PROPERTIES AT ASSIGNED

                           TEMPERATURE AND PRESSURE

 CASE =                

             REACTANT                    WT FRACTION      ENERGY      TEMP
                                          (SEE NOTE)     KJ/KG-MOL      K  
 FUEL        H2                           1.0000000         0.000      0.000
 OXIDANT     H2                           1.0000000         0.000      0.000

 O/F=    1.00000  %FUEL= 50.000000  R,EQ.RATIO= 0.000000  PHI,EQ.RATIO=-1.000000

 THERMODYNAMIC PROPERTIES

 P, BAR            100.00   100.00   110.00   110.00   110.00   110.00   110.00   110.00
 T, K              815.00   820.00   750.00   755.00   760.00   765.00   770.00   775.00
 RHO, KG/CU M    2.9749 0 2.9568 0 3.5560 0 3.5324 0 3.5092 0 3.4863 0 3.4636 0 3.4413 0
 H, KJ/KG         7513.43  7587.01  6559.21  6632.46  6705.74  6779.04  6852.36  6925.71
 U, KJ/KG         4151.97  4204.93  3465.84  3518.47  3571.12  3623.80  3676.51  3729.23
 G, KJ/KG        -41733.4 -42035.8 -37550.1 -37844.4 -38139.2 -38434.4 -38730.2 -39026.4
 S, KJ/(KG)(K)    60.4256  60.5156  58.8124  58.9097  59.0065  59.1026  59.1981  59.2931

 M, (1/n)           2.016    2.016    2.016    2.016    2.016    2.016    2.016    2.016
 (dLV/dLP)t      -1.00000 -1.00000 -1.00000 -1.00000 -1.00000 -1.00000 -1.00000 -1.00000
 (dLV/dLT)p        1.0000   1.0000   1.0000   1.0000   1.0000   1.0000   1.0000   1.0000
 Cp, KJ/(KG)(K)   14.7141  14.7196  14.6486  14.6532  14.6579  14.6627  14.6675  14.6724
 GAMMAs            1.3895   1.3893   1.3919   1.3917   1.3916   1.3914   1.3912   1.3910
 SON VEL,M/SEC     2161.2   2167.6   2075.0   2081.8   2088.5   2095.3   2102.0   2108.6

 TRANSPORT PROPERTIES (GASES ONLY)
   CONDUCTIVITY IN UNITS OF MILLIWATTS/(CM)(K)

 VISC,MILLIPOISE  0.17796  0.17872  0.16789  0.16867  0.16945  0.17023  0.17101  0.17179

  WITH EQUILIBRIUM REACTIONS

 Cp, KJ/(KG)(K)   14.7141  14.7196  14.6486  14.6532  14.6579  14.6627  14.6675  14.6724
 CONDUCTIVITY      3.7925   3.8100   3.5645   3.5821   3.5996   3.6172   3.6347   3.6523
 PRANDTL NUMBER    0.6904   0.6905   0.6900   0.6900   0.6900   0.6901   0.6901   0.6901

  WITH FROZEN REACTIONS

 Cp, KJ/(KG)(K)   14.7141  14.7196  14.6486  14.6532  14.6579  14.6627  14.6675  14.6724
 CONDUCTIVITY      3.7925   3.8100   3.5645   3.5821   3.5996   3.6172   3.6347   3.6523
 PRANDTL NUMBER    0.6904   0.6905   0.6900   0.6900   0.6900   0.6901   0.6901   0.6901

 MASS FRACTIONS

 *H2              1.00000  1.00000  1.00000  1.00000  1.00000  1.00000  1.00000  1.00000

  * THERMODYNAMIC PROPERTIES FITTED TO 20000.K

 NOTE. WEIGHT FRACTION OF FUEL IN TOTAL FUELS AND OF OXIDANT IN TOTAL OXIDANTS









               THERMODYNAMIC EQUILIBRIUM PROPERTIES AT ASSIGNED

                           TEMPERATURE AND PRESSURE

 CASE =                

             REACTANT                    WT FRACTION      ENERGY      TEMP
                                          (SEE NOTE)     KJ/KG-MOL      K  
 FUEL        H2                           1.0000000         0.000      0.000
 OXIDANT     H2                           1.0000000         0.000      0.000

 O/F=    1.00000  %FUEL= 50.000000  R,EQ.RATIO= 0.000000  PHI,EQ.RATIO=-1.000000

 THERMODYNAMIC PROPERTIES

 P, BAR            110.00   110.00   110.00   110.00   110.00   110.00   110.00   110.00
 T, K              780.00   785.00   790.00   795.00   800.00   805.00   810.00   815.00
 RHO, KG/CU M    3.4192 0 3.3974 0 3.3759 0 3.3547 0 3.3337 0 3.3130 0 3.2926 0 3.2724 0
 H, KJ/KG         6999.09  7072.49  7145.91  7219.36  7292.84  7366.34  7439.87  7513.43
 U, KJ/KG         3781.98  3834.76  3887.56  3940.39  3993.25  4046.13  4099.03  4151.97
 G, KJ/KG        -39323.1 -39620.3 -39917.9 -40216.0 -40514.6 -40813.6 -41113.1 -41413.1
 S, KJ/(KG)(K)    59.3875  59.4813  59.5745  59.6672  59.7593  59.8509  59.9420  60.0325

 M, (1/n)           2.016    2.016    2.016    2.016    2.016    2.016    2.016    2.016
 (dLV/dLP)t      -1.00000 -1.00000 -1.00000 -1.00000 -1.00000 -1.00000 -1.00000 -1.00000
 (dLV/dLT)p        1.0000   1.0000   1.0000   1.0000   1.0000   1.0000   1.0000   1.0000
 Cp, KJ/(KG)(K)   14.6774  14.6824  14.6875  14.6927  14.6979  14.7032  14.7086  14.7141
 GAMMAs            1.3908   1.3907   1.3905   1.3903   1.3901   1.3899   1.3897   1.3895
 SON VEL,M/SEC     2115.3   2121.9   2128.5   2135.1   2141.7   2148.2   2154.7   2161.2

 TRANSPORT PROPERTIES (GASES ONLY)
   CONDUCTIVITY IN UNITS OF MILLIWATTS/(CM)(K)

 VISC,MILLIPOISE  0.17256  0.17334  0.17411  0.17488  0.17565  0.17642  0.17719  0.17796

  WITH EQUILIBRIUM REACTIONS

 Cp, KJ/(KG)(K)   14.6774  14.6824  14.6875  14.6927  14.6979  14.7032  14.7086  14.7141
 CONDUCTIVITY      3.6698   3.6874   3.7049   3.7224   3.7399   3.7575   3.7750   3.7925
 PRANDTL NUMBER    0.6902   0.6902   0.6902   0.6903   0.6903   0.6904   0.6904   0.6904

  WITH FROZEN REACTIONS

 Cp, KJ/(KG)(K)   14.6774  14.6824  14.6875  14.6927  14.6979  14.7032  14.7086  14.7141
 CONDUCTIVITY      3.6698   3.6874   3.7049   3.7224   3.7399   3.7575   3.7750   3.7925
 PRANDTL NUMBER    0.6902   0.6902   0.6902   0.6903   0.6903   0.6904   0.6904   0.6904

 MASS FRACTIONS

 *H2              1.00000  1.00000  1.00000  1.00000  1.00000  1.00000  1.00000  1.00000

  * THERMODYNAMIC PROPERTIES FITTED TO 20000.K

 NOTE. WEIGHT FRACTION OF FUEL IN TOTAL FUELS AND OF OXIDANT IN TOTAL OXIDANTS









               THERMODYNAMIC EQUILIBRIUM PROPERTIES AT ASSIGNED

                           TEMPERATURE AND PRESSURE

 CASE =                

             REACTANT                    WT FRACTION      ENERGY      TEMP
                                          (SEE NOTE)     KJ/KG-MOL      K  
 FUEL        H2                           1.0000000         0.000      0.000
 OXIDANT     H2                           1.0000000         0.000      0.000

 O/F=    1.00000  %FUEL= 50.000000  R,EQ.RATIO= 0.000000  PHI,EQ.RATIO=-1.000000

 THERMODYNAMIC PROPERTIES

 P, BAR            110.00   120.00   120.00   120.00   120.00   120.00   120.00   120.00
 T, K              820.00   750.00   755.00   760.00   765.00   770.00   775.00   780.00
 RHO, KG/CU M    3.2524 0 3.8793 0 3.8536 0 3.8282 0 3.8032 0 3.7785 0 3.7541 0 3.7301 0
 H, KJ/KG         7587.01  6559.21  6632.46  6705.74  6779.04  6852.36  6925.71  6999.09
 U, KJ/KG         4204.93  3465.84  3518.47  3571.12  3623.80  3676.51  3729.23  3781.98
 G, KJ/KG        -41713.4 -37280.9 -37573.4 -37866.4 -38159.9 -38453.9 -38748.3 -39043.2
 S, KJ/(KG)(K)    60.1225  58.4535  58.5509  58.6476  58.7437  58.8393  58.9342  59.0286

 M, (1/n)           2.016    2.016    2.016    2.016    2.016    2.016    2.016    2.016
 (dLV/dLP)t      -1.00000 -1.00000 -1.00000 -1.00000 -1.00000 -1.00000 -1.00000 -1.00000
 (dLV/dLT)p        1.0000   1.0000   1.0000   1.0000   1.0000   1.0000   1.0000   1.0000
 Cp, KJ/(KG)(K)   14.7196  14.6486  14.6532  14.6579  14.6627  14.6675  14.6724  14.6774
 GAMMAs            1.3893   1.3919   1.3917   1.3916   1.3914   1.3912   1.3910   1.3908
 SON VEL,M/SEC     2167.6   2075.0   2081.8   2088.5   2095.3   2102.0   2108.6   2115.3

 TRANSPORT PROPERTIES (GASES ONLY)
   CONDUCTIVITY IN UNITS OF MILLIWATTS/(CM)(K)

 VISC,MILLIPOISE  0.17872  0.16789  0.16867  0.16945  0.17023  0.17101  0.17179  0.17256

  WITH EQUILIBRIUM REACTIONS

 Cp, KJ/(KG)(K)   14.7196  14.6486  14.6532  14.6579  14.6627  14.6675  14.6724  14.6774
 CONDUCTIVITY      3.8100   3.5645   3.5821   3.5996   3.6172   3.6347   3.6523   3.6698
 PRANDTL NUMBER    0.6905   0.6900   0.6900   0.6900   0.6901   0.6901   0.6901   0.6902

  WITH FROZEN REACTIONS

 Cp, KJ/(KG)(K)   14.7196  14.6486  14.6532  14.6579  14.6627  14.6675  14.6724  14.6774
 CONDUCTIVITY      3.8100   3.5645   3.5821   3.5996   3.6172   3.6347   3.6523   3.6698
 PRANDTL NUMBER    0.6905   0.6900   0.6900   0.6900   0.6901   0.6901   0.6901   0.6902

 MASS FRACTIONS

 *H2              1.00000  1.00000  1.00000  1.00000  1.00000  1.00000  1.00000  1.00000

  * THERMODYNAMIC PROPERTIES FITTED TO 20000.K

 NOTE. WEIGHT FRACTION OF FUEL IN TOTAL FUELS AND OF OXIDANT IN TOTAL OXIDANTS









               THERMODYNAMIC EQUILIBRIUM PROPERTIES AT ASSIGNED

                           TEMPERATURE AND PRESSURE

 CASE =                

             REACTANT                    WT FRACTION      ENERGY      TEMP
                                          (SEE NOTE)     KJ/KG-MOL      K  
 FUEL        H2                           1.0000000         0.000      0.000
 OXIDANT     H2                           1.0000000         0.000      0.000

 O/F=    1.00000  %FUEL= 50.000000  R,EQ.RATIO= 0.000000  PHI,EQ.RATIO=-1.000000

 THERMODYNAMIC PROPERTIES

 P, BAR            120.00   120.00   120.00   120.00   120.00   120.00   120.00   120.00
 T, K              785.00   790.00   795.00   800.00   805.00   810.00   815.00   820.00
 RHO, KG/CU M    3.7063 0 3.6828 0 3.6597 0 3.6368 0 3.6142 0 3.5919 0 3.5699 0 3.5481 0
 H, KJ/KG         7072.49  7145.91  7219.36  7292.84  7366.34  7439.87  7513.43  7587.01
 U, KJ/KG         3834.76  3887.56  3940.39  3993.25  4046.13  4099.03  4151.97  4204.93
 G, KJ/KG        -39338.6 -39634.4 -39930.7 -40227.5 -40524.7 -40822.4 -41120.6 -41419.2
 S, KJ/(KG)(K)    59.1224  59.2156  59.3083  59.4004  59.4920  59.5831  59.6736  59.7636

 M, (1/n)           2.016    2.016    2.016    2.016    2.016    2.016    2.016    2.016
 (dLV/dLP)t      -1.00000 -1.00000 -1.00000 -1.00000 -1.00000 -1.00000 -1.00000 -1.00000
 (dLV/dLT)p        1.0000   1.0000   1.0000   1.0000   1.0000   1.0000   1.0000   1.0000
 Cp, KJ/(KG)(K)   14.6824  14.6875  14.6927  14.6979  14.7032  14.7086  14.7141  14.7196
 GAMMAs            1.3907   1.3905   1.3903   1.3901   1.3899   1.3897   1.3895   1.3893
 SON VEL,M/SEC     2121.9   2128.5   2135.1   2141.7   2148.2   2154.7   2161.2   2167.6

 TRANSPORT PROPERTIES (GASES ONLY)
   CONDUCTIVITY IN UNITS OF MILLIWATTS/(CM)(K)

 VISC,MILLIPOISE  0.17334  0.17411  0.17488  0.17565  0.17642  0.17719  0.17796  0.17872

  WITH EQUILIBRIUM REACTIONS

 Cp, KJ/(KG)(K)   14.6824  14.6875  14.6927  14.6979  14.7032  14.7086  14.7141  14.7196
 CONDUCTIVITY      3.6874   3.7049   3.7224   3.7399   3.7575   3.7750   3.7925   3.8100
 PRANDTL NUMBER    0.6902   0.6902   0.6903   0.6903   0.6904   0.6904   0.6904   0.6905

  WITH FROZEN REACTIONS

 Cp, KJ/(KG)(K)   14.6824  14.6875  14.6927  14.6979  14.7032  14.7086  14.7141  14.7196
 CONDUCTIVITY      3.6874   3.7049   3.7224   3.7399   3.7575   3.7750   3.7925   3.8100
 PRANDTL NUMBER    0.6902   0.6902   0.6903   0.6903   0.6904   0.6904   0.6904   0.6905

 MASS FRACTIONS

 *H2              1.00000  1.00000  1.00000  1.00000  1.00000  1.00000  1.00000  1.00000

  * THERMODYNAMIC PROPERTIES FITTED TO 20000.K

 NOTE. WEIGHT FRACTION OF FUEL IN TOTAL FUELS AND OF OXIDANT IN TOTAL OXIDANTS









               THERMODYNAMIC EQUILIBRIUM PROPERTIES AT ASSIGNED

                           TEMPERATURE AND PRESSURE

 CASE =                

             REACTANT                    WT FRACTION      ENERGY      TEMP
                                          (SEE NOTE)     KJ/KG-MOL      K  
 FUEL        H2                           1.0000000         0.000      0.000
 OXIDANT     H2                           1.0000000         0.000      0.000

 O/F=    1.00000  %FUEL= 50.000000  R,EQ.RATIO= 0.000000  PHI,EQ.RATIO=-1.000000

 THERMODYNAMIC PROPERTIES

 P, BAR            132.00   132.00   132.00   132.00   132.00   132.00   132.00   132.00
 T, K              750.00   755.00   760.00   765.00   770.00   775.00   780.00   785.00
 RHO, KG/CU M    4.2672 0 4.2389 0 4.2110 0 4.1835 0 4.1564 0 4.1295 0 4.1031 0 4.0769 0
 H, KJ/KG         6559.21  6632.46  6705.74  6779.04  6852.36  6925.71  6999.09  7072.49
 U, KJ/KG         3465.84  3518.47  3571.12  3623.80  3676.51  3729.23  3781.98  3834.76
 G, KJ/KG        -36986.1 -37276.6 -37567.7 -37859.2 -38151.2 -38443.6 -38736.6 -39030.0
 S, KJ/(KG)(K)    58.0604  58.1578  58.2545  58.3506  58.4461  58.5411  58.6355  58.7293

 M, (1/n)           2.016    2.016    2.016    2.016    2.016    2.016    2.016    2.016
 (dLV/dLP)t      -1.00000 -1.00000 -1.00000 -1.00000 -1.00000 -1.00000 -1.00000 -1.00000
 (dLV/dLT)p        1.0000   1.0000   1.0000   1.0000   1.0000   1.0000   1.0000   1.0000
 Cp, KJ/(KG)(K)   14.6486  14.6532  14.6579  14.6627  14.6675  14.6724  14.6774  14.6824
 GAMMAs            1.3919   1.3917   1.3916   1.3914   1.3912   1.3910   1.3908   1.3907
 SON VEL,M/SEC     2075.0   2081.8   2088.5   2095.3   2102.0   2108.6   2115.3   2121.9

 TRANSPORT PROPERTIES (GASES ONLY)
   CONDUCTIVITY IN UNITS OF MILLIWATTS/(CM)(K)

 VISC,MILLIPOISE  0.16789  0.16867  0.16945  0.17023  0.17101  0.17179  0.17256  0.17334

  WITH EQUILIBRIUM REACTIONS

 Cp, KJ/(KG)(K)   14.6486  14.6532  14.6579  14.6627  14.6675  14.6724  14.6774  14.6824
 CONDUCTIVITY      3.5645   3.5821   3.5996   3.6172   3.6347   3.6523   3.6698   3.6874
 PRANDTL NUMBER    0.6900   0.6900   0.6900   0.6901   0.6901   0.6901   0.6902   0.6902

  WITH FROZEN REACTIONS

 Cp, KJ/(KG)(K)   14.6486  14.6532  14.6579  14.6627  14.6675  14.6724  14.6774  14.6824
 CONDUCTIVITY      3.5645   3.5821   3.5996   3.6172   3.6347   3.6523   3.6698   3.6874
 PRANDTL NUMBER    0.6900   0.6900   0.6900   0.6901   0.6901   0.6901   0.6902   0.6902

 MASS FRACTIONS

 *H2              1.00000  1.00000  1.00000  1.00000  1.00000  1.00000  1.00000  1.00000

  * THERMODYNAMIC PROPERTIES FITTED TO 20000.K

 NOTE. WEIGHT FRACTION OF FUEL IN TOTAL FUELS AND OF OXIDANT IN TOTAL OXIDANTS









               THERMODYNAMIC EQUILIBRIUM PROPERTIES AT ASSIGNED

                           TEMPERATURE AND PRESSURE

 CASE =                

             REACTANT                    WT FRACTION      ENERGY      TEMP
                                          (SEE NOTE)     KJ/KG-MOL      K  
 FUEL        H2                           1.0000000         0.000      0.000
 OXIDANT     H2                           1.0000000         0.000      0.000

 O/F=    1.00000  %FUEL= 50.000000  R,EQ.RATIO= 0.000000  PHI,EQ.RATIO=-1.000000

 THERMODYNAMIC PROPERTIES

 P, BAR            132.00   132.00   132.00   132.00   132.00   132.00   132.00   148.00
 T, K              790.00   795.00   800.00   805.00   810.00   815.00   820.00   750.00
 RHO, KG/CU M    4.0511 0 4.0257 0 4.0005 0 3.9756 0 3.9511 0 3.9269 0 3.9029 0 4.7844 0
 H, KJ/KG         7145.91  7219.36  7292.84  7366.34  7439.87  7513.43  7587.01  6559.21
 U, KJ/KG         3887.56  3940.39  3993.25  4046.13  4099.03  4151.97  4204.93  3465.84
 G, KJ/KG        -39323.9 -39618.2 -39913.0 -40208.3 -40504.0 -40800.2 -41096.8 -36632.2
 S, KJ/(KG)(K)    58.8225  58.9152  59.0073  59.0989  59.1900  59.2805  59.3705  57.5885

 M, (1/n)           2.016    2.016    2.016    2.016    2.016    2.016    2.016    2.016
 (dLV/dLP)t      -1.00000 -1.00000 -1.00000 -1.00000 -1.00000 -1.00000 -1.00000 -1.00000
 (dLV/dLT)p        1.0000   1.0000   1.0000   1.0000   1.0000   1.0000   1.0000   1.0000
 Cp, KJ/(KG)(K)   14.6875  14.6927  14.6979  14.7032  14.7086  14.7141  14.7196  14.6486
 GAMMAs            1.3905   1.3903   1.3901   1.3899   1.3897   1.3895   1.3893   1.3919
 SON VEL,M/SEC     2128.5   2135.1   2141.7   2148.2   2154.7   2161.2   2167.6   2075.0

 TRANSPORT PROPERTIES (GASES ONLY)
   CONDUCTIVITY IN UNITS OF MILLIWATTS/(CM)(K)

 VISC,MILLIPOISE  0.17411  0.17488  0.17565  0.17642  0.17719  0.17796  0.17872  0.16789

  WITH EQUILIBRIUM REACTIONS

 Cp, KJ/(KG)(K)   14.6875  14.6927  14.6979  14.7032  14.7086  14.7141  14.7196  14.6486
 CONDUCTIVITY      3.7049   3.7224   3.7399   3.7575   3.7750   3.7925   3.8100   3.5645
 PRANDTL NUMBER    0.6902   0.6903   0.6903   0.6904   0.6904   0.6904   0.6905   0.6900

  WITH FROZEN REACTIONS

 Cp, KJ/(KG)(K)   14.6875  14.6927  14.6979  14.7032  14.7086  14.7141  14.7196  14.6486
 CONDUCTIVITY      3.7049   3.7224   3.7399   3.7575   3.7750   3.7925   3.8100   3.5645
 PRANDTL NUMBER    0.6902   0.6903   0.6903   0.6904   0.6904   0.6904   0.6905   0.6900

 MASS FRACTIONS

 *H2              1.00000  1.00000  1.00000  1.00000  1.00000  1.00000  1.00000  1.00000

  * THERMODYNAMIC PROPERTIES FITTED TO 20000.K

 NOTE. WEIGHT FRACTION OF FUEL IN TOTAL FUELS AND OF OXIDANT IN TOTAL OXIDANTS









               THERMODYNAMIC EQUILIBRIUM PROPERTIES AT ASSIGNED

                           TEMPERATURE AND PRESSURE

 CASE =                

             REACTANT                    WT FRACTION      ENERGY      TEMP
                                          (SEE NOTE)     KJ/KG-MOL      K  
 FUEL        H2                           1.0000000         0.000      0.000
 OXIDANT     H2                           1.0000000         0.000      0.000

 O/F=    1.00000  %FUEL= 50.000000  R,EQ.RATIO= 0.000000  PHI,EQ.RATIO=-1.000000

 THERMODYNAMIC PROPERTIES

 P, BAR            148.00   148.00   148.00   148.00   148.00   148.00   148.00   148.00
 T, K              755.00   760.00   765.00   770.00   775.00   780.00   785.00   790.00
 RHO, KG/CU M    4.7527 0 4.7215 0 4.6906 0 4.6602 0 4.6301 0 4.6004 0 4.5711 0 4.5422 0
 H, KJ/KG         6632.46  6705.74  6779.04  6852.36  6925.71  6999.09  7072.49  7145.91
 U, KJ/KG         3518.47  3571.12  3623.80  3676.51  3729.23  3781.98  3834.76  3887.56
 G, KJ/KG        -36920.4 -37209.0 -37498.2 -37787.8 -38077.9 -38368.5 -38659.6 -38951.1
 S, KJ/(KG)(K)    57.6859  57.7826  57.8787  57.9743  58.0692  58.1636  58.2574  58.3506

 M, (1/n)           2.016    2.016    2.016    2.016    2.016    2.016    2.016    2.016
 (dLV/dLP)t      -1.00000 -1.00000 -1.00000 -1.00000 -1.00000 -1.00000 -1.00000 -1.00000
 (dLV/dLT)p        1.0000   1.0000   1.0000   1.0000   1.0000   1.0000   1.0000   1.0000
 Cp, KJ/(KG)(K)   14.6532  14.6579  14.6627  14.6675  14.6724  14.6774  14.6824  14.6875
 GAMMAs            1.3917   1.3916   1.3914   1.3912   1.3910   1.3908   1.3907   1.3905
 SON VEL,M/SEC     2081.8   2088.5   2095.3   2102.0   2108.6   2115.3   2121.9   2128.5

 TRANSPORT PROPERTIES (GASES ONLY)
   CONDUCTIVITY IN UNITS OF MILLIWATTS/(CM)(K)

 VISC,MILLIPOISE  0.16867  0.16945  0.17023  0.17101  0.17179  0.17256  0.17334  0.17411

  WITH EQUILIBRIUM REACTIONS

 Cp, KJ/(KG)(K)   14.6532  14.6579  14.6627  14.6675  14.6724  14.6774  14.6824  14.6875
 CONDUCTIVITY      3.5821   3.5996   3.6172   3.6347   3.6523   3.6698   3.6874   3.7049
 PRANDTL NUMBER    0.6900   0.6900   0.6901   0.6901   0.6901   0.6902   0.6902   0.6902

  WITH FROZEN REACTIONS

 Cp, KJ/(KG)(K)   14.6532  14.6579  14.6627  14.6675  14.6724  14.6774  14.6824  14.6875
 CONDUCTIVITY      3.5821   3.5996   3.6172   3.6347   3.6523   3.6698   3.6874   3.7049
 PRANDTL NUMBER    0.6900   0.6900   0.6901   0.6901   0.6901   0.6902   0.6902   0.6902

 MASS FRACTIONS

 *H2              1.00000  1.00000  1.00000  1.00000  1.00000  1.00000  1.00000  1.00000

  * THERMODYNAMIC PROPERTIES FITTED TO 20000.K

 NOTE. WEIGHT FRACTION OF FUEL IN TOTAL FUELS AND OF OXIDANT IN TOTAL OXIDANTS









               THERMODYNAMIC EQUILIBRIUM PROPERTIES AT ASSIGNED

                           TEMPERATURE AND PRESSURE

 CASE =                

             REACTANT                    WT FRACTION      ENERGY      TEMP
                                          (SEE NOTE)     KJ/KG-MOL      K  
 FUEL        H2                           1.0000000         0.000      0.000
 OXIDANT     H2                           1.0000000         0.000      0.000

 O/F=    1.00000  %FUEL= 50.000000  R,EQ.RATIO= 0.000000  PHI,EQ.RATIO=-1.000000

 THERMODYNAMIC PROPERTIES

 P, BAR            148.00   148.00   148.00   148.00   148.00   148.00   165.00   165.00
 T, K              795.00   800.00   805.00   810.00   815.00   820.00   750.00   755.00
 RHO, KG/CU M    4.5136 0 4.4854 0 4.4575 0 4.4300 0 4.4028 0 4.3760 0 5.3340 0 5.2987 0
 H, KJ/KG         7219.36  7292.84  7366.34  7439.87  7513.43  7587.01  6559.21  6632.46
 U, KJ/KG         3940.39  3993.25  4046.13  4099.03  4151.97  4204.93  3465.84  3518.47
 G, KJ/KG        -39243.1 -39535.5 -39828.4 -40121.8 -40415.6 -40709.9 -36295.9 -36581.8
 S, KJ/(KG)(K)    58.4433  58.5354  58.6270  58.7181  58.8086  58.8986  57.1401  57.2374

 M, (1/n)           2.016    2.016    2.016    2.016    2.016    2.016    2.016    2.016
 (dLV/dLP)t      -1.00000 -1.00000 -1.00000 -1.00000 -1.00000 -1.00000 -1.00000 -1.00000
 (dLV/dLT)p        1.0000   1.0000   1.0000   1.0000   1.0000   1.0000   1.0000   1.0000
 Cp, KJ/(KG)(K)   14.6927  14.6979  14.7032  14.7086  14.7141  14.7196  14.6486  14.6532
 GAMMAs            1.3903   1.3901   1.3899   1.3897   1.3895   1.3893   1.3919   1.3917
 SON VEL,M/SEC     2135.1   2141.7   2148.2   2154.7   2161.2   2167.6   2075.0   2081.8

 TRANSPORT PROPERTIES (GASES ONLY)
   CONDUCTIVITY IN UNITS OF MILLIWATTS/(CM)(K)

 VISC,MILLIPOISE  0.17488  0.17565  0.17642  0.17719  0.17796  0.17872  0.16789  0.16867

  WITH EQUILIBRIUM REACTIONS

 Cp, KJ/(KG)(K)   14.6927  14.6979  14.7032  14.7086  14.7141  14.7196  14.6486  14.6532
 CONDUCTIVITY      3.7224   3.7399   3.7575   3.7750   3.7925   3.8100   3.5645   3.5821
 PRANDTL NUMBER    0.6903   0.6903   0.6904   0.6904   0.6904   0.6905   0.6900   0.6900

  WITH FROZEN REACTIONS

 Cp, KJ/(KG)(K)   14.6927  14.6979  14.7032  14.7086  14.7141  14.7196  14.6486  14.6532
 CONDUCTIVITY      3.7224   3.7399   3.7575   3.7750   3.7925   3.8100   3.5645   3.5821
 PRANDTL NUMBER    0.6903   0.6903   0.6904   0.6904   0.6904   0.6905   0.6900   0.6900

 MASS FRACTIONS

 *H2              1.00000  1.00000  1.00000  1.00000  1.00000  1.00000  1.00000  1.00000

  * THERMODYNAMIC PROPERTIES FITTED TO 20000.K

 NOTE. WEIGHT FRACTION OF FUEL IN TOTAL FUELS AND OF OXIDANT IN TOTAL OXIDANTS









               THERMODYNAMIC EQUILIBRIUM PROPERTIES AT ASSIGNED

                           TEMPERATURE AND PRESSURE

 CASE =                

             REACTANT                    WT FRACTION      ENERGY      TEMP
                                          (SEE NOTE)     KJ/KG-MOL      K  
 FUEL        H2                           1.0000000         0.000      0.000
 OXIDANT     H2                           1.0000000         0.000      0.000

 O/F=    1.00000  %FUEL= 50.000000  R,EQ.RATIO= 0.000000  PHI,EQ.RATIO=-1.000000

 THERMODYNAMIC PROPERTIES

 P, BAR            165.00   165.00   165.00   165.00   165.00   165.00   165.00   165.00
 T, K              760.00   765.00   770.00   775.00   780.00   785.00   790.00   795.00
 RHO, KG/CU M    5.2638 0 5.2294 0 5.1954 0 5.1619 0 5.1288 0 5.0962 0 5.0639 0 5.0321 0
 H, KJ/KG         6705.74  6779.04  6852.36  6925.71  6999.09  7072.49  7145.91  7219.36
 U, KJ/KG         3571.12  3623.80  3676.51  3729.23  3781.98  3834.76  3887.56  3940.39
 G, KJ/KG        -36868.2 -37155.1 -37442.5 -37730.4 -38018.7 -38307.5 -38596.8 -38886.5
 S, KJ/(KG)(K)    57.3341  57.4303  57.5258  57.6207  57.7151  57.8089  57.9022  57.9948

 M, (1/n)           2.016    2.016    2.016    2.016    2.016    2.016    2.016    2.016
 (dLV/dLP)t      -1.00000 -1.00000 -1.00000 -1.00000 -1.00000 -1.00000 -1.00000 -1.00000
 (dLV/dLT)p        1.0000   1.0000   1.0000   1.0000   1.0000   1.0000   1.0000   1.0000
 Cp, KJ/(KG)(K)   14.6579  14.6627  14.6675  14.6724  14.6774  14.6824  14.6875  14.6927
 GAMMAs            1.3916   1.3914   1.3912   1.3910   1.3908   1.3907   1.3905   1.3903
 SON VEL,M/SEC     2088.5   2095.3   2102.0   2108.6   2115.3   2121.9   2128.5   2135.1

 TRANSPORT PROPERTIES (GASES ONLY)
   CONDUCTIVITY IN UNITS OF MILLIWATTS/(CM)(K)

 VISC,MILLIPOISE  0.16945  0.17023  0.17101  0.17179  0.17256  0.17334  0.17411  0.17488

  WITH EQUILIBRIUM REACTIONS

 Cp, KJ/(KG)(K)   14.6579  14.6627  14.6675  14.6724  14.6774  14.6824  14.6875  14.6927
 CONDUCTIVITY      3.5996   3.6172   3.6347   3.6523   3.6698   3.6874   3.7049   3.7224
 PRANDTL NUMBER    0.6900   0.6901   0.6901   0.6901   0.6902   0.6902   0.6902   0.6903

  WITH FROZEN REACTIONS

 Cp, KJ/(KG)(K)   14.6579  14.6627  14.6675  14.6724  14.6774  14.6824  14.6875  14.6927
 CONDUCTIVITY      3.5996   3.6172   3.6347   3.6523   3.6698   3.6874   3.7049   3.7224
 PRANDTL NUMBER    0.6900   0.6901   0.6901   0.6901   0.6902   0.6902   0.6902   0.6903

 MASS FRACTIONS

 *H2              1.00000  1.00000  1.00000  1.00000  1.00000  1.00000  1.00000  1.00000

  * THERMODYNAMIC PROPERTIES FITTED TO 20000.K

 NOTE. WEIGHT FRACTION OF FUEL IN TOTAL FUELS AND OF OXIDANT IN TOTAL OXIDANTS









               THERMODYNAMIC EQUILIBRIUM PROPERTIES AT ASSIGNED

                           TEMPERATURE AND PRESSURE

 CASE =                

             REACTANT                    WT FRACTION      ENERGY      TEMP
                                          (SEE NOTE)     KJ/KG-MOL      K  
 FUEL        H2                           1.0000000         0.000      0.000
 OXIDANT     H2                           1.0000000         0.000      0.000

 O/F=    1.00000  %FUEL= 50.000000  R,EQ.RATIO= 0.000000  PHI,EQ.RATIO=-1.000000

 THERMODYNAMIC PROPERTIES

 P, BAR            165.00   165.00   165.00   165.00   165.00   180.00   180.00   180.00
 T, K              800.00   805.00   810.00   815.00   820.00   750.00   755.00   760.00
 RHO, KG/CU M    5.0006 0 4.9696 0 4.9389 0 4.9086 0 4.8786 0 5.8189 0 5.7804 0 5.7423 0
 H, KJ/KG         7292.84  7366.34  7439.87  7513.43  7587.01  6559.21  6632.46  6705.74
 U, KJ/KG         3993.25  4046.13  4099.03  4151.97  4204.93  3465.84  3518.47  3571.12
 G, KJ/KG        -39176.7 -39467.4 -39758.5 -40050.1 -40342.1 -36026.7 -36310.8 -36595.4
 S, KJ/(KG)(K)    58.0870  58.1786  58.2696  58.3602  58.4502  56.7812  56.8785  56.9752

 M, (1/n)           2.016    2.016    2.016    2.016    2.016    2.016    2.016    2.016
 (dLV/dLP)t      -1.00000 -1.00000 -1.00000 -1.00000 -1.00000 -1.00000 -1.00000 -1.00000
 (dLV/dLT)p        1.0000   1.0000   1.0000   1.0000   1.0000   1.0000   1.0000   1.0000
 Cp, KJ/(KG)(K)   14.6979  14.7032  14.7086  14.7141  14.7196  14.6486  14.6532  14.6579
 GAMMAs            1.3901   1.3899   1.3897   1.3895   1.3893   1.3919   1.3917   1.3916
 SON VEL,M/SEC     2141.7   2148.2   2154.7   2161.2   2167.6   2075.0   2081.8   2088.5

 TRANSPORT PROPERTIES (GASES ONLY)
   CONDUCTIVITY IN UNITS OF MILLIWATTS/(CM)(K)

 VISC,MILLIPOISE  0.17565  0.17642  0.17719  0.17796  0.17872  0.16789  0.16867  0.16945

  WITH EQUILIBRIUM REACTIONS

 Cp, KJ/(KG)(K)   14.6979  14.7032  14.7086  14.7141  14.7196  14.6486  14.6532  14.6579
 CONDUCTIVITY      3.7399   3.7575   3.7750   3.7925   3.8100   3.5645   3.5821   3.5996
 PRANDTL NUMBER    0.6903   0.6904   0.6904   0.6904   0.6905   0.6900   0.6900   0.6900

  WITH FROZEN REACTIONS

 Cp, KJ/(KG)(K)   14.6979  14.7032  14.7086  14.7141  14.7196  14.6486  14.6532  14.6579
 CONDUCTIVITY      3.7399   3.7575   3.7750   3.7925   3.8100   3.5645   3.5821   3.5996
 PRANDTL NUMBER    0.6903   0.6904   0.6904   0.6904   0.6905   0.6900   0.6900   0.6900

 MASS FRACTIONS

 *H2              1.00000  1.00000  1.00000  1.00000  1.00000  1.00000  1.00000  1.00000

  * THERMODYNAMIC PROPERTIES FITTED TO 20000.K

 NOTE. WEIGHT FRACTION OF FUEL IN TOTAL FUELS AND OF OXIDANT IN TOTAL OXIDANTS









               THERMODYNAMIC EQUILIBRIUM PROPERTIES AT ASSIGNED

                           TEMPERATURE AND PRESSURE

 CASE =                

             REACTANT                    WT FRACTION      ENERGY      TEMP
                                          (SEE NOTE)     KJ/KG-MOL      K  
 FUEL        H2                           1.0000000         0.000      0.000
 OXIDANT     H2                           1.0000000         0.000      0.000

 O/F=    1.00000  %FUEL= 50.000000  R,EQ.RATIO= 0.000000  PHI,EQ.RATIO=-1.000000

 THERMODYNAMIC PROPERTIES

 P, BAR            180.00   180.00   180.00   180.00   180.00   180.00   180.00   180.00
 T, K              765.00   770.00   775.00   780.00   785.00   790.00   795.00   800.00
 RHO, KG/CU M    5.7048 0 5.6678 0 5.6312 0 5.5951 0 5.5595 0 5.5243 0 5.4895 0 5.4552 0
 H, KJ/KG         6779.04  6852.36  6925.71  6999.09  7072.49  7145.91  7219.36  7292.84
 U, KJ/KG         3623.80  3676.51  3729.23  3781.98  3834.76  3887.56  3940.39  3993.25
 G, KJ/KG        -36880.6 -37166.2 -37452.2 -37738.8 -38025.8 -38313.3 -38601.2 -38889.6
 S, KJ/(KG)(K)    57.0714  57.1669  57.2619  57.3562  57.4500  57.5433  57.6360  57.7281

 M, (1/n)           2.016    2.016    2.016    2.016    2.016    2.016    2.016    2.016
 (dLV/dLP)t      -1.00000 -1.00000 -1.00000 -1.00000 -1.00000 -1.00000 -1.00000 -1.00000
 (dLV/dLT)p        1.0000   1.0000   1.0000   1.0000   1.0000   1.0000   1.0000   1.0000
 Cp, KJ/(KG)(K)   14.6627  14.6675  14.6724  14.6774  14.6824  14.6875  14.6927  14.6979
 GAMMAs            1.3914   1.3912   1.3910   1.3908   1.3907   1.3905   1.3903   1.3901
 SON VEL,M/SEC     2095.3   2102.0   2108.6   2115.3   2121.9   2128.5   2135.1   2141.7

 TRANSPORT PROPERTIES (GASES ONLY)
   CONDUCTIVITY IN UNITS OF MILLIWATTS/(CM)(K)

 VISC,MILLIPOISE  0.17023  0.17101  0.17179  0.17256  0.17334  0.17411  0.17488  0.17565

  WITH EQUILIBRIUM REACTIONS

 Cp, KJ/(KG)(K)   14.6627  14.6675  14.6724  14.6774  14.6824  14.6875  14.6927  14.6979
 CONDUCTIVITY      3.6172   3.6347   3.6523   3.6698   3.6874   3.7049   3.7224   3.7399
 PRANDTL NUMBER    0.6901   0.6901   0.6901   0.6902   0.6902   0.6902   0.6903   0.6903

  WITH FROZEN REACTIONS

 Cp, KJ/(KG)(K)   14.6627  14.6675  14.6724  14.6774  14.6824  14.6875  14.6927  14.6979
 CONDUCTIVITY      3.6172   3.6347   3.6523   3.6698   3.6874   3.7049   3.7224   3.7399
 PRANDTL NUMBER    0.6901   0.6901   0.6901   0.6902   0.6902   0.6902   0.6903   0.6903

 MASS FRACTIONS

 *H2              1.00000  1.00000  1.00000  1.00000  1.00000  1.00000  1.00000  1.00000

  * THERMODYNAMIC PROPERTIES FITTED TO 20000.K

 NOTE. WEIGHT FRACTION OF FUEL IN TOTAL FUELS AND OF OXIDANT IN TOTAL OXIDANTS









               THERMODYNAMIC EQUILIBRIUM PROPERTIES AT ASSIGNED

                           TEMPERATURE AND PRESSURE

 CASE =                

             REACTANT                    WT FRACTION      ENERGY      TEMP
                                          (SEE NOTE)     KJ/KG-MOL      K  
 FUEL        H2                           1.0000000         0.000      0.000
 OXIDANT     H2                           1.0000000         0.000      0.000

 O/F=    1.00000  %FUEL= 50.000000  R,EQ.RATIO= 0.000000  PHI,EQ.RATIO=-1.000000

 THERMODYNAMIC PROPERTIES

 P, BAR            180.00   180.00   180.00   180.00   200.00   200.00   200.00   200.00
 T, K              805.00   810.00   815.00   820.00   750.00   755.00   760.00   765.00
 RHO, KG/CU M    5.4213 0 5.3879 0 5.3548 0 5.3222 0 6.4654 0 6.4226 0 6.3804 0 6.3387 0
 H, KJ/KG         7366.34  7439.87  7513.43  7587.01  6559.21  6632.46  6705.74  6779.04
 U, KJ/KG         4046.13  4099.03  4151.97  4204.93  3465.84  3518.47  3571.12  3623.80
 G, KJ/KG        -39178.5 -39467.8 -39757.6 -40047.8 -35700.8 -35982.7 -36265.2 -36548.1
 S, KJ/(KG)(K)    57.8197  57.9107  58.0013  58.0913  56.3466  56.4440  56.5407  56.6368

 M, (1/n)           2.016    2.016    2.016    2.016    2.016    2.016    2.016    2.016
 (dLV/dLP)t      -1.00000 -1.00000 -1.00000 -1.00000 -1.00000 -1.00000 -1.00000 -1.00000
 (dLV/dLT)p        1.0000   1.0000   1.0000   1.0000   1.0000   1.0000   1.0000   1.0000
 Cp, KJ/(KG)(K)   14.7032  14.7086  14.7141  14.7196  14.6486  14.6532  14.6579  14.6627
 GAMMAs            1.3899   1.3897   1.3895   1.3893   1.3919   1.3917   1.3916   1.3914
 SON VEL,M/SEC     2148.2   2154.7   2161.2   2167.6   2075.0   2081.8   2088.5   2095.3

 TRANSPORT PROPERTIES (GASES ONLY)
   CONDUCTIVITY IN UNITS OF MILLIWATTS/(CM)(K)

 VISC,MILLIPOISE  0.17642  0.17719  0.17796  0.17872  0.16789  0.16867  0.16945  0.17023

  WITH EQUILIBRIUM REACTIONS

 Cp, KJ/(KG)(K)   14.7032  14.7086  14.7141  14.7196  14.6486  14.6532  14.6579  14.6627
 CONDUCTIVITY      3.7575   3.7750   3.7925   3.8100   3.5645   3.5821   3.5996   3.6172
 PRANDTL NUMBER    0.6904   0.6904   0.6904   0.6905   0.6900   0.6900   0.6900   0.6901

  WITH FROZEN REACTIONS

 Cp, KJ/(KG)(K)   14.7032  14.7086  14.7141  14.7196  14.6486  14.6532  14.6579  14.6627
 CONDUCTIVITY      3.7575   3.7750   3.7925   3.8100   3.5645   3.5821   3.5996   3.6172
 PRANDTL NUMBER    0.6904   0.6904   0.6904   0.6905   0.6900   0.6900   0.6900   0.6901

 MASS FRACTIONS

 *H2              1.00000  1.00000  1.00000  1.00000  1.00000  1.00000  1.00000  1.00000

  * THERMODYNAMIC PROPERTIES FITTED TO 20000.K

 NOTE. WEIGHT FRACTION OF FUEL IN TOTAL FUELS AND OF OXIDANT IN TOTAL OXIDANTS









               THERMODYNAMIC EQUILIBRIUM PROPERTIES AT ASSIGNED

                           TEMPERATURE AND PRESSURE

 CASE =                

             REACTANT                    WT FRACTION      ENERGY      TEMP
                                          (SEE NOTE)     KJ/KG-MOL      K  
 FUEL        H2                           1.0000000         0.000      0.000
 OXIDANT     H2                           1.0000000         0.000      0.000

 O/F=    1.00000  %FUEL= 50.000000  R,EQ.RATIO= 0.000000  PHI,EQ.RATIO=-1.000000

 THERMODYNAMIC PROPERTIES

 P, BAR            200.00   200.00   200.00   200.00   200.00   200.00   200.00   200.00
 T, K              770.00   775.00   780.00   785.00   790.00   795.00   800.00   805.00
 RHO, KG/CU M    6.2975 0 6.2569 0 6.2168 0 6.1772 0 6.1381 0 6.0995 0 6.0614 0 6.0237 0
 H, KJ/KG         6852.36  6925.71  6999.09  7072.49  7145.91  7219.36  7292.84  7366.34
 U, KJ/KG         3676.51  3729.23  3781.98  3834.76  3887.56  3940.39  3993.25  4046.13
 G, KJ/KG        -36831.5 -37115.4 -37399.8 -37684.7 -37970.0 -38255.7 -38542.0 -38828.7
 S, KJ/(KG)(K)    56.7323  56.8273  56.9217  57.0155  57.1087  57.2014  57.2935  57.3851

 M, (1/n)           2.016    2.016    2.016    2.016    2.016    2.016    2.016    2.016
 (dLV/dLP)t      -1.00000 -1.00000 -1.00000 -1.00000 -1.00000 -1.00000 -1.00000 -1.00000
 (dLV/dLT)p        1.0000   1.0000   1.0000   1.0000   1.0000   1.0000   1.0000   1.0000
 Cp, KJ/(KG)(K)   14.6675  14.6724  14.6774  14.6824  14.6875  14.6927  14.6979  14.7032
 GAMMAs            1.3912   1.3910   1.3908   1.3907   1.3905   1.3903   1.3901   1.3899
 SON VEL,M/SEC     2102.0   2108.6   2115.3   2121.9   2128.5   2135.1   2141.7   2148.2

 TRANSPORT PROPERTIES (GASES ONLY)
   CONDUCTIVITY IN UNITS OF MILLIWATTS/(CM)(K)

 VISC,MILLIPOISE  0.17101  0.17179  0.17256  0.17334  0.17411  0.17488  0.17565  0.17642

  WITH EQUILIBRIUM REACTIONS

 Cp, KJ/(KG)(K)   14.6675  14.6724  14.6774  14.6824  14.6875  14.6927  14.6979  14.7032
 CONDUCTIVITY      3.6347   3.6523   3.6698   3.6874   3.7049   3.7224   3.7399   3.7575
 PRANDTL NUMBER    0.6901   0.6901   0.6902   0.6902   0.6902   0.6903   0.6903   0.6904

  WITH FROZEN REACTIONS

 Cp, KJ/(KG)(K)   14.6675  14.6724  14.6774  14.6824  14.6875  14.6927  14.6979  14.7032
 CONDUCTIVITY      3.6347   3.6523   3.6698   3.6874   3.7049   3.7224   3.7399   3.7575
 PRANDTL NUMBER    0.6901   0.6901   0.6902   0.6902   0.6902   0.6903   0.6903   0.6904

 MASS FRACTIONS

 *H2              1.00000  1.00000  1.00000  1.00000  1.00000  1.00000  1.00000  1.00000

  * THERMODYNAMIC PROPERTIES FITTED TO 20000.K

 NOTE. WEIGHT FRACTION OF FUEL IN TOTAL FUELS AND OF OXIDANT IN TOTAL OXIDANTS









               THERMODYNAMIC EQUILIBRIUM PROPERTIES AT ASSIGNED

                           TEMPERATURE AND PRESSURE

 CASE =                

             REACTANT                    WT FRACTION      ENERGY      TEMP
                                          (SEE NOTE)     KJ/KG-MOL      K  
 FUEL        H2                           1.0000000         0.000      0.000
 OXIDANT     H2                           1.0000000         0.000      0.000

 O/F=    1.00000  %FUEL= 50.000000  R,EQ.RATIO= 0.000000  PHI,EQ.RATIO=-1.000000

 THERMODYNAMIC PROPERTIES

 P, BAR            200.00   200.00   200.00   225.00   225.00   225.00   225.00   225.00
 T, K              810.00   815.00   820.00   750.00   755.00   760.00   765.00   770.00
 RHO, KG/CU M    5.9865 0 5.9498 0 5.9135 0 7.2736 0 7.2254 0 7.1779 0 7.1310 0 7.0847 0
 H, KJ/KG         7439.87  7513.43  7587.01  6559.21  6632.46  6705.74  6779.04  6852.36
 U, KJ/KG         4099.03  4151.97  4204.93  3465.84  3518.47  3571.12  3623.80  3676.51
 G, KJ/KG        -39115.8 -39403.4 -39691.5 -35336.4 -35616.0 -35896.0 -36176.5 -36457.5
 S, KJ/(KG)(K)    57.4762  57.5667  57.6567  55.8608  55.9582  56.0549  56.1510  56.2466

 M, (1/n)           2.016    2.016    2.016    2.016    2.016    2.016    2.016    2.016
 (dLV/dLP)t      -1.00000 -1.00000 -1.00000 -1.00000 -1.00000 -1.00000 -1.00000 -1.00000
 (dLV/dLT)p        1.0000   1.0000   1.0000   1.0000   1.0000   1.0000   1.0000   1.0000
 Cp, KJ/(KG)(K)   14.7086  14.7141  14.7196  14.6486  14.6532  14.6579  14.6627  14.6675
 GAMMAs            1.3897   1.3895   1.3893   1.3919   1.3917   1.3916   1.3914   1.3912
 SON VEL,M/SEC     2154.7   2161.2   2167.6   2075.0   2081.8   2088.5   2095.3   2102.0

 TRANSPORT PROPERTIES (GASES ONLY)
   CONDUCTIVITY IN UNITS OF MILLIWATTS/(CM)(K)

 VISC,MILLIPOISE  0.17719  0.17796  0.17872  0.16789  0.16867  0.16945  0.17023  0.17101

  WITH EQUILIBRIUM REACTIONS

 Cp, KJ/(KG)(K)   14.7086  14.7141  14.7196  14.6486  14.6532  14.6579  14.6627  14.6675
 CONDUCTIVITY      3.7750   3.7925   3.8100   3.5645   3.5821   3.5996   3.6172   3.6347
 PRANDTL NUMBER    0.6904   0.6904   0.6905   0.6900   0.6900   0.6900   0.6901   0.6901

  WITH FROZEN REACTIONS

 Cp, KJ/(KG)(K)   14.7086  14.7141  14.7196  14.6486  14.6532  14.6579  14.6627  14.6675
 CONDUCTIVITY      3.7750   3.7925   3.8100   3.5645   3.5821   3.5996   3.6172   3.6347
 PRANDTL NUMBER    0.6904   0.6904   0.6905   0.6900   0.6900   0.6900   0.6901   0.6901

 MASS FRACTIONS

 *H2              1.00000  1.00000  1.00000  1.00000  1.00000  1.00000  1.00000  1.00000

  * THERMODYNAMIC PROPERTIES FITTED TO 20000.K

 NOTE. WEIGHT FRACTION OF FUEL IN TOTAL FUELS AND OF OXIDANT IN TOTAL OXIDANTS









               THERMODYNAMIC EQUILIBRIUM PROPERTIES AT ASSIGNED

                           TEMPERATURE AND PRESSURE

 CASE =                

             REACTANT                    WT FRACTION      ENERGY      TEMP
                                          (SEE NOTE)     KJ/KG-MOL      K  
 FUEL        H2                           1.0000000         0.000      0.000
 OXIDANT     H2                           1.0000000         0.000      0.000

 O/F=    1.00000  %FUEL= 50.000000  R,EQ.RATIO= 0.000000  PHI,EQ.RATIO=-1.000000

 THERMODYNAMIC PROPERTIES

 P, BAR            225.00   225.00   225.00   225.00   225.00   225.00   225.00   225.00
 T, K              775.00   780.00   785.00   790.00   795.00   800.00   805.00   810.00
 RHO, KG/CU M    7.0390 0 6.9939 0 6.9493 0 6.9053 0 6.8619 0 6.8190 0 6.7767 0 6.7348 0
 H, KJ/KG         6925.71  6999.09  7072.49  7145.91  7219.36  7292.84  7366.34  7439.87
 U, KJ/KG         3729.23  3781.98  3834.76  3887.56  3940.39  3993.25  4046.13  4099.03
 G, KJ/KG        -36739.0 -37020.9 -37303.3 -37586.2 -37869.5 -38153.3 -38437.6 -38722.3
 S, KJ/(KG)(K)    56.3415  56.4359  56.5297  56.6229  56.7156  56.8077  56.8993  56.9904

 M, (1/n)           2.016    2.016    2.016    2.016    2.016    2.016    2.016    2.016
 (dLV/dLP)t      -1.00000 -1.00000 -1.00000 -1.00000 -1.00000 -1.00000 -1.00000 -1.00000
 (dLV/dLT)p        1.0000   1.0000   1.0000   1.0000   1.0000   1.0000   1.0000   1.0000
 Cp, KJ/(KG)(K)   14.6724  14.6774  14.6824  14.6875  14.6927  14.6979  14.7032  14.7086
 GAMMAs            1.3910   1.3908   1.3907   1.3905   1.3903   1.3901   1.3899   1.3897
 SON VEL,M/SEC     2108.6   2115.3   2121.9   2128.5   2135.1   2141.7   2148.2   2154.7

 TRANSPORT PROPERTIES (GASES ONLY)
   CONDUCTIVITY IN UNITS OF MILLIWATTS/(CM)(K)

 VISC,MILLIPOISE  0.17179  0.17256  0.17334  0.17411  0.17488  0.17565  0.17642  0.17719

  WITH EQUILIBRIUM REACTIONS

 Cp, KJ/(KG)(K)   14.6724  14.6774  14.6824  14.6875  14.6927  14.6979  14.7032  14.7086
 CONDUCTIVITY      3.6523   3.6698   3.6874   3.7049   3.7224   3.7399   3.7575   3.7750
 PRANDTL NUMBER    0.6901   0.6902   0.6902   0.6902   0.6903   0.6903   0.6904   0.6904

  WITH FROZEN REACTIONS

 Cp, KJ/(KG)(K)   14.6724  14.6774  14.6824  14.6875  14.6927  14.6979  14.7032  14.7086
 CONDUCTIVITY      3.6523   3.6698   3.6874   3.7049   3.7224   3.7399   3.7575   3.7750
 PRANDTL NUMBER    0.6901   0.6902   0.6902   0.6902   0.6903   0.6903   0.6904   0.6904

 MASS FRACTIONS

 *H2              1.00000  1.00000  1.00000  1.00000  1.00000  1.00000  1.00000  1.00000

  * THERMODYNAMIC PROPERTIES FITTED TO 20000.K

 NOTE. WEIGHT FRACTION OF FUEL IN TOTAL FUELS AND OF OXIDANT IN TOTAL OXIDANTS









               THERMODYNAMIC EQUILIBRIUM PROPERTIES AT ASSIGNED

                           TEMPERATURE AND PRESSURE

 CASE =                

             REACTANT                    WT FRACTION      ENERGY      TEMP
                                          (SEE NOTE)     KJ/KG-MOL      K  
 FUEL        H2                           1.0000000         0.000      0.000
 OXIDANT     H2                           1.0000000         0.000      0.000

 O/F=    1.00000  %FUEL= 50.000000  R,EQ.RATIO= 0.000000  PHI,EQ.RATIO=-1.000000

 THERMODYNAMIC PROPERTIES

 P, BAR            225.00   225.00   250.00   250.00   250.00   250.00   250.00   250.00
 T, K              815.00   820.00   750.00   755.00   760.00   765.00   770.00   775.00
 RHO, KG/CU M    6.6935 0 6.6527 0 8.0818 0 8.0283 0 7.9755 0 7.9233 0 7.8719 0 7.8211 0
 H, KJ/KG         7513.43  7587.01  6559.21  6632.46  6705.74  6779.04  6852.36  6925.71
 U, KJ/KG         4151.97  4204.93  3465.84  3518.47  3571.12  3623.80  3676.51  3729.23
 G, KJ/KG        -39007.5 -39293.1 -35010.5 -35287.9 -35565.7 -35844.0 -36122.9 -36402.2
 S, KJ/(KG)(K)    57.0809  57.1709  55.4263  55.5236  55.6203  55.7165  55.8120  55.9069

 M, (1/n)           2.016    2.016    2.016    2.016    2.016    2.016    2.016    2.016
 (dLV/dLP)t      -1.00000 -1.00000 -1.00000 -1.00000 -1.00000 -1.00000 -1.00000 -1.00000
 (dLV/dLT)p        1.0000   1.0000   1.0000   1.0000   1.0000   1.0000   1.0000   1.0000
 Cp, KJ/(KG)(K)   14.7141  14.7196  14.6486  14.6532  14.6579  14.6627  14.6675  14.6724
 GAMMAs            1.3895   1.3893   1.3919   1.3917   1.3916   1.3914   1.3912   1.3910
 SON VEL,M/SEC     2161.2   2167.6   2075.0   2081.8   2088.5   2095.3   2102.0   2108.6

 TRANSPORT PROPERTIES (GASES ONLY)
   CONDUCTIVITY IN UNITS OF MILLIWATTS/(CM)(K)

 VISC,MILLIPOISE  0.17796  0.17872  0.16789  0.16867  0.16945  0.17023  0.17101  0.17179

  WITH EQUILIBRIUM REACTIONS

 Cp, KJ/(KG)(K)   14.7141  14.7196  14.6486  14.6532  14.6579  14.6627  14.6675  14.6724
 CONDUCTIVITY      3.7925   3.8100   3.5645   3.5821   3.5996   3.6172   3.6347   3.6523
 PRANDTL NUMBER    0.6904   0.6905   0.6900   0.6900   0.6900   0.6901   0.6901   0.6901

  WITH FROZEN REACTIONS

 Cp, KJ/(KG)(K)   14.7141  14.7196  14.6486  14.6532  14.6579  14.6627  14.6675  14.6724
 CONDUCTIVITY      3.7925   3.8100   3.5645   3.5821   3.5996   3.6172   3.6347   3.6523
 PRANDTL NUMBER    0.6904   0.6905   0.6900   0.6900   0.6900   0.6901   0.6901   0.6901

 MASS FRACTIONS

 *H2              1.00000  1.00000  1.00000  1.00000  1.00000  1.00000  1.00000  1.00000

  * THERMODYNAMIC PROPERTIES FITTED TO 20000.K

 NOTE. WEIGHT FRACTION OF FUEL IN TOTAL FUELS AND OF OXIDANT IN TOTAL OXIDANTS









               THERMODYNAMIC EQUILIBRIUM PROPERTIES AT ASSIGNED

                           TEMPERATURE AND PRESSURE

 CASE =                

             REACTANT                    WT FRACTION      ENERGY      TEMP
                                          (SEE NOTE)     KJ/KG-MOL      K  
 FUEL        H2                           1.0000000         0.000      0.000
 OXIDANT     H2                           1.0000000         0.000      0.000

 O/F=    1.00000  %FUEL= 50.000000  R,EQ.RATIO= 0.000000  PHI,EQ.RATIO=-1.000000

 THERMODYNAMIC PROPERTIES

 P, BAR            250.00   250.00   250.00   250.00   250.00   250.00   250.00   250.00
 T, K              780.00   785.00   790.00   795.00   800.00   805.00   810.00   815.00
 RHO, KG/CU M    7.7710 0 7.7215 0 7.6726 0 7.6243 0 7.5767 0 7.5296 0 7.4831 0 7.4372 0
 H, KJ/KG         6999.09  7072.49  7145.91  7219.36  7292.84  7366.34  7439.87  7513.43
 U, KJ/KG         3781.98  3834.76  3887.56  3940.39  3993.25  4046.13  4099.03  4151.97
 G, KJ/KG        -36681.9 -36962.2 -37242.9 -37524.1 -37805.7 -38087.8 -38370.3 -38653.3
 S, KJ/(KG)(K)    56.0013  56.0951  56.1884  56.2810  56.3732  56.4648  56.5558  56.6464

 M, (1/n)           2.016    2.016    2.016    2.016    2.016    2.016    2.016    2.016
 (dLV/dLP)t      -1.00000 -1.00000 -1.00000 -1.00000 -1.00000 -1.00000 -1.00000 -1.00000
 (dLV/dLT)p        1.0000   1.0000   1.0000   1.0000   1.0000   1.0000   1.0000   1.0000
 Cp, KJ/(KG)(K)   14.6774  14.6824  14.6875  14.6927  14.6979  14.7032  14.7086  14.7141
 GAMMAs            1.3908   1.3907   1.3905   1.3903   1.3901   1.3899   1.3897   1.3895
 SON VEL,M/SEC     2115.3   2121.9   2128.5   2135.1   2141.7   2148.2   2154.7   2161.2

 TRANSPORT PROPERTIES (GASES ONLY)
   CONDUCTIVITY IN UNITS OF MILLIWATTS/(CM)(K)

 VISC,MILLIPOISE  0.17256  0.17334  0.17411  0.17488  0.17565  0.17642  0.17719  0.17796

  WITH EQUILIBRIUM REACTIONS

 Cp, KJ/(KG)(K)   14.6774  14.6824  14.6875  14.6927  14.6979  14.7032  14.7086  14.7141
 CONDUCTIVITY      3.6698   3.6874   3.7049   3.7224   3.7399   3.7575   3.7750   3.7925
 PRANDTL NUMBER    0.6902   0.6902   0.6902   0.6903   0.6903   0.6904   0.6904   0.6904

  WITH FROZEN REACTIONS

 Cp, KJ/(KG)(K)   14.6774  14.6824  14.6875  14.6927  14.6979  14.7032  14.7086  14.7141
 CONDUCTIVITY      3.6698   3.6874   3.7049   3.7224   3.7399   3.7575   3.7750   3.7925
 PRANDTL NUMBER    0.6902   0.6902   0.6902   0.6903   0.6903   0.6904   0.6904   0.6904

 MASS FRACTIONS

 *H2              1.00000  1.00000  1.00000  1.00000  1.00000  1.00000  1.00000  1.00000

  * THERMODYNAMIC PROPERTIES FITTED TO 20000.K

 NOTE. WEIGHT FRACTION OF FUEL IN TOTAL FUELS AND OF OXIDANT IN TOTAL OXIDANTS









               THERMODYNAMIC EQUILIBRIUM PROPERTIES AT ASSIGNED

                           TEMPERATURE AND PRESSURE

 CASE =                

             REACTANT                    WT FRACTION      ENERGY      TEMP
                                          (SEE NOTE)     KJ/KG-MOL      K  
 FUEL        H2                           1.0000000         0.000      0.000
 OXIDANT     H2                           1.0000000         0.000      0.000

 O/F=    1.00000  %FUEL= 50.000000  R,EQ.RATIO= 0.000000  PHI,EQ.RATIO=-1.000000

 THERMODYNAMIC PROPERTIES

 P, BAR            250.00
 T, K              820.00
 RHO, KG/CU M    7.3919 0
 H, KJ/KG         7587.01
 U, KJ/KG         4204.93
 G, KJ/KG        -38936.8
 S, KJ/(KG)(K)    56.7364

 M, (1/n)           2.016
 (dLV/dLP)t      -1.00000
 (dLV/dLT)p        1.0000
 Cp, KJ/(KG)(K)   14.7196
 GAMMAs            1.3893
 SON VEL,M/SEC     2167.6

 TRANSPORT PROPERTIES (GASES ONLY)
   CONDUCTIVITY IN UNITS OF MILLIWATTS/(CM)(K)

 VISC,MILLIPOISE  0.17872

  WITH EQUILIBRIUM REACTIONS

 Cp, KJ/(KG)(K)   14.7196
 CONDUCTIVITY      3.8100
 PRANDTL NUMBER    0.6905

  WITH FROZEN REACTIONS

 Cp, KJ/(KG)(K)   14.7196
 CONDUCTIVITY      3.8100
 PRANDTL NUMBER    0.6905

 MASS FRACTIONS

 *H2              1.00000

  * THERMODYNAMIC PROPERTIES FITTED TO 20000.K

 NOTE. WEIGHT FRACTION OF FUEL IN TOTAL FUELS AND OF OXIDANT IN TOTAL OXIDANTS



  
