
 *******************************************************************************

         NASA-GLENN CHEMICAL EQUILIBRIUM PROGRAM CEA2, MAY 21, 2004
                   BY  BONNIE MCBRIDE AND SANFORD GORDON
      REFS: NASA RP-1311, PART I, 1994 AND NASA RP-1311, PART II, 1996

 *******************************************************************************



  prob tp ions
  p,bar= 0.0225,0.025,0.028,0.031,0.035,0.039,0.044,0.049,0.054,0.06,0.067,0.074,
 0.0825,0.091,0.1
  t,k= 725,730,735,740,745,750,755,760,765,770,775,780,785,790,795
  
  reac
  na H2                wt%=100.0000
  
  output short
  output siunits
  output transport
  
 end





               THERMODYNAMIC EQUILIBRIUM PROPERTIES AT ASSIGNED

                           TEMPERATURE AND PRESSURE

 CASE =                

             REACTANT                    WT FRACTION      ENERGY      TEMP
                                          (SEE NOTE)     KJ/KG-MOL      K  
             H2                           1.0000000         0.000      0.000

 O/F=    0.00000  %FUEL=100.000000  R,EQ.RATIO= 0.000000  PHI,EQ.RATIO= 0.000000

 THERMODYNAMIC PROPERTIES

 P, BAR           0.02250  0.02250  0.02250  0.02250  0.02250  0.02250  0.02250  0.02250
 T, K              725.00   730.00   735.00   740.00   745.00   750.00   755.00   760.00
 RHO, KG/CU M    7.5244-4 7.4729-4 7.4221-4 7.3719-4 7.3225-4 7.2737-4 7.2255-4 7.1779-4
 H, KJ/KG         6193.29  6266.42  6339.58  6412.77  6485.97  6559.21  6632.46  6705.74
 U, KJ/KG         3203.02  3255.55  3308.09  3360.65  3413.24  3465.85  3518.48  3571.14
 G, KJ/KG        -61487.7 -61954.5 -62422.0 -62890.0 -63358.5 -63827.5 -64296.9 -64766.9
 S, KJ/(KG)(K)    93.3531  93.4534  93.5531  93.6523  93.7509  93.8489  93.9462  94.0430

 M, (1/n)           2.016    2.016    2.016    2.016    2.016    2.016    2.016    2.016
 (dLV/dLP)t      -1.00000 -0.99999 -0.99999 -0.99999 -0.99999 -0.99999 -0.99999 -0.99999
 (dLV/dLT)p        1.0000   1.0000   1.0000   1.0000   1.0000   1.0000   1.0000   1.0000
 Cp, KJ/(KG)(K)   14.6265  14.6308  14.6351  14.6396  14.6440  14.6486  14.6532  14.6579
 GAMMAs            1.3927   1.3926   1.3924   1.3923   1.3921   1.3919   1.3917   1.3916
 SON VEL,M/SEC     2040.8   2047.7   2054.5   2061.4   2068.2   2075.0   2081.8   2088.5

 TRANSPORT PROPERTIES (GASES ONLY)
   CONDUCTIVITY IN UNITS OF MILLIWATTS/(CM)(K)

 VISC,MILLIPOISE  0.16396  0.16475  0.16554  0.16632  0.16711  0.16789  0.16867  0.16945

  WITH EQUILIBRIUM REACTIONS

 Cp, KJ/(KG)(K)   14.6265  14.6308  14.6351  14.6396  14.6440  14.6486  14.6532  14.6579
 CONDUCTIVITY      3.4766   3.4942   3.5118   3.5294   3.5469   3.5645   3.5821   3.5996
 PRANDTL NUMBER    0.6898   0.6898   0.6899   0.6899   0.6899   0.6900   0.6900   0.6900

  WITH FROZEN REACTIONS

 Cp, KJ/(KG)(K)   14.6265  14.6308  14.6351  14.6396  14.6440  14.6486  14.6532  14.6579
 CONDUCTIVITY      3.4766   3.4942   3.5118   3.5294   3.5469   3.5645   3.5821   3.5996
 PRANDTL NUMBER    0.6898   0.6898   0.6899   0.6899   0.6899   0.6900   0.6900   0.6900

 MOLE FRACTIONS

 *H2              1.00000  1.00000  1.00000  1.00000  1.00000  1.00000  1.00000  1.00000

  * THERMODYNAMIC PROPERTIES FITTED TO 20000.K

 NOTE. WEIGHT FRACTION OF FUEL IN TOTAL FUELS AND OF OXIDANT IN TOTAL OXIDANTS









               THERMODYNAMIC EQUILIBRIUM PROPERTIES AT ASSIGNED

                           TEMPERATURE AND PRESSURE

 CASE =                

             REACTANT                    WT FRACTION      ENERGY      TEMP
                                          (SEE NOTE)     KJ/KG-MOL      K  
             H2                           1.0000000         0.000      0.000

 O/F=    0.00000  %FUEL=100.000000  R,EQ.RATIO= 0.000000  PHI,EQ.RATIO= 0.000000

 THERMODYNAMIC PROPERTIES

 P, BAR           0.02250  0.02250  0.02250  0.02250  0.02250  0.02250  0.02250  0.02500
 T, K              765.00   770.00   775.00   780.00   785.00   790.00   795.00   725.00
 RHO, KG/CU M    7.1310-4 7.0847-4 7.0390-4 6.9939-4 6.9493-4 6.9054-4 6.8619-4 8.3605-4
 H, KJ/KG         6779.04  6852.36  6925.71  6999.09  7072.49  7145.91  7219.36  6193.28
 U, KJ/KG         3623.82  3676.52  3729.25  3782.00  3834.78  3887.58  3940.41  3203.03
 G, KJ/KG        -65237.4 -65708.3 -66179.7 -66651.6 -67124.0 -67596.8 -68070.1 -61172.5
 S, KJ/(KG)(K)    94.1391  94.2346  94.3296  94.4240  94.5178  94.6110  94.7037  92.9183

 M, (1/n)           2.016    2.016    2.016    2.016    2.016    2.016    2.016    2.016
 (dLV/dLP)t      -0.99999 -0.99999 -0.99999 -0.99999 -0.99999 -0.99999 -0.99999 -0.99999
 (dLV/dLT)p        1.0000   1.0000   1.0000   1.0000   1.0000   1.0000   1.0000   1.0000
 Cp, KJ/(KG)(K)   14.6627  14.6675  14.6724  14.6774  14.6824  14.6875  14.6927  14.6265
 GAMMAs            1.3914   1.3912   1.3910   1.3909   1.3907   1.3905   1.3903   1.3927
 SON VEL,M/SEC     2095.3   2102.0   2108.6   2115.3   2121.9   2128.5   2135.1   2040.8

 TRANSPORT PROPERTIES (GASES ONLY)
   CONDUCTIVITY IN UNITS OF MILLIWATTS/(CM)(K)

 VISC,MILLIPOISE  0.17023  0.17101  0.17179  0.17256  0.17334  0.17411  0.17488  0.16396

  WITH EQUILIBRIUM REACTIONS

 Cp, KJ/(KG)(K)   14.6627  14.6675  14.6724  14.6774  14.6824  14.6875  14.6927  14.6265
 CONDUCTIVITY      3.6172   3.6347   3.6523   3.6698   3.6874   3.7049   3.7224   3.4766
 PRANDTL NUMBER    0.6901   0.6901   0.6901   0.6902   0.6902   0.6902   0.6903   0.6898

  WITH FROZEN REACTIONS

 Cp, KJ/(KG)(K)   14.6627  14.6675  14.6724  14.6774  14.6824  14.6875  14.6927  14.6265
 CONDUCTIVITY      3.6172   3.6347   3.6523   3.6698   3.6874   3.7049   3.7224   3.4766
 PRANDTL NUMBER    0.6901   0.6901   0.6901   0.6902   0.6902   0.6902   0.6903   0.6898

 MOLE FRACTIONS

 *H2              1.00000  1.00000  1.00000  1.00000  1.00000  1.00000  1.00000  1.00000

  * THERMODYNAMIC PROPERTIES FITTED TO 20000.K

 NOTE. WEIGHT FRACTION OF FUEL IN TOTAL FUELS AND OF OXIDANT IN TOTAL OXIDANTS









               THERMODYNAMIC EQUILIBRIUM PROPERTIES AT ASSIGNED

                           TEMPERATURE AND PRESSURE

 CASE =                

             REACTANT                    WT FRACTION      ENERGY      TEMP
                                          (SEE NOTE)     KJ/KG-MOL      K  
             H2                           1.0000000         0.000      0.000

 O/F=    0.00000  %FUEL=100.000000  R,EQ.RATIO= 0.000000  PHI,EQ.RATIO= 0.000000

 THERMODYNAMIC PROPERTIES

 P, BAR           0.02500  0.02500  0.02500  0.02500  0.02500  0.02500  0.02500  0.02500
 T, K              730.00   735.00   740.00   745.00   750.00   755.00   760.00   765.00
 RHO, KG/CU M    8.3032-4 8.2468-4 8.1910-4 8.1361-4 8.0818-4 8.0283-4 7.9755-4 7.9234-4
 H, KJ/KG         6266.42  6339.58  6412.76  6485.97  6559.20  6632.46  6705.74  6779.04
 U, KJ/KG         3255.55  3308.09  3360.65  3413.24  3465.85  3518.48  3571.14  3623.82
 G, KJ/KG        -61637.2 -62102.6 -62568.4 -63034.7 -63501.5 -63968.9 -64436.7 -64904.9
 S, KJ/(KG)(K)    93.0187  93.1185  93.2178  93.3164  93.4143  93.5117  93.6084  93.7045

 M, (1/n)           2.016    2.016    2.016    2.016    2.016    2.016    2.016    2.016
 (dLV/dLP)t      -0.99999 -0.99999 -0.99999 -0.99999 -0.99999 -0.99999 -0.99999 -0.99999
 (dLV/dLT)p        1.0000   1.0000   1.0000   1.0000   1.0000   1.0000   1.0000   1.0000
 Cp, KJ/(KG)(K)   14.6308  14.6351  14.6396  14.6440  14.6486  14.6532  14.6579  14.6627
 GAMMAs            1.3926   1.3924   1.3923   1.3921   1.3919   1.3917   1.3916   1.3914
 SON VEL,M/SEC     2047.7   2054.5   2061.4   2068.2   2075.0   2081.8   2088.5   2095.3

 TRANSPORT PROPERTIES (GASES ONLY)
   CONDUCTIVITY IN UNITS OF MILLIWATTS/(CM)(K)

 VISC,MILLIPOISE  0.16475  0.16554  0.16632  0.16711  0.16789  0.16867  0.16945  0.17023

  WITH EQUILIBRIUM REACTIONS

 Cp, KJ/(KG)(K)   14.6308  14.6351  14.6396  14.6440  14.6486  14.6532  14.6579  14.6627
 CONDUCTIVITY      3.4942   3.5118   3.5294   3.5469   3.5645   3.5821   3.5996   3.6172
 PRANDTL NUMBER    0.6898   0.6899   0.6899   0.6899   0.6900   0.6900   0.6900   0.6901

  WITH FROZEN REACTIONS

 Cp, KJ/(KG)(K)   14.6308  14.6351  14.6396  14.6440  14.6486  14.6532  14.6579  14.6627
 CONDUCTIVITY      3.4942   3.5118   3.5294   3.5469   3.5645   3.5821   3.5996   3.6172
 PRANDTL NUMBER    0.6898   0.6899   0.6899   0.6899   0.6900   0.6900   0.6900   0.6901

 MOLE FRACTIONS

 *H2              1.00000  1.00000  1.00000  1.00000  1.00000  1.00000  1.00000  1.00000

  * THERMODYNAMIC PROPERTIES FITTED TO 20000.K

 NOTE. WEIGHT FRACTION OF FUEL IN TOTAL FUELS AND OF OXIDANT IN TOTAL OXIDANTS









               THERMODYNAMIC EQUILIBRIUM PROPERTIES AT ASSIGNED

                           TEMPERATURE AND PRESSURE

 CASE =                

             REACTANT                    WT FRACTION      ENERGY      TEMP
                                          (SEE NOTE)     KJ/KG-MOL      K  
             H2                           1.0000000         0.000      0.000

 O/F=    0.00000  %FUEL=100.000000  R,EQ.RATIO= 0.000000  PHI,EQ.RATIO= 0.000000

 THERMODYNAMIC PROPERTIES

 P, BAR           0.02500  0.02500  0.02500  0.02500  0.02500  0.02500  0.02800  0.02800
 T, K              770.00   775.00   780.00   785.00   790.00   795.00   725.00   730.00
 RHO, KG/CU M    7.8719-4 7.8211-4 7.7710-4 7.7215-4 7.6726-4 7.6244-4 9.3638-4 9.2996-4
 H, KJ/KG         6852.36  6925.71  6999.09  7072.49  7145.91  7219.36  6193.28  6266.42
 U, KJ/KG         3676.52  3729.25  3782.00  3834.78  3887.58  3940.41  3203.03  3255.55
 G, KJ/KG        -65373.7 -65842.9 -66312.6 -66782.8 -67253.5 -67724.6 -60833.6 -61296.0
 S, KJ/(KG)(K)    93.8001  93.8950  93.9894  94.0832  94.1764  94.2691  92.4508  92.5513

 M, (1/n)           2.016    2.016    2.016    2.016    2.016    2.016    2.016    2.016
 (dLV/dLP)t      -0.99999 -0.99999 -0.99999 -0.99999 -0.99999 -0.99999 -0.99999 -0.99999
 (dLV/dLT)p        1.0000   1.0000   1.0000   1.0000   1.0000   1.0000   1.0000   1.0000
 Cp, KJ/(KG)(K)   14.6675  14.6724  14.6774  14.6824  14.6875  14.6927  14.6265  14.6308
 GAMMAs            1.3912   1.3910   1.3909   1.3907   1.3905   1.3903   1.3927   1.3926
 SON VEL,M/SEC     2102.0   2108.6   2115.3   2121.9   2128.5   2135.1   2040.8   2047.7

 TRANSPORT PROPERTIES (GASES ONLY)
   CONDUCTIVITY IN UNITS OF MILLIWATTS/(CM)(K)

 VISC,MILLIPOISE  0.17101  0.17179  0.17256  0.17334  0.17411  0.17488  0.16396  0.16475

  WITH EQUILIBRIUM REACTIONS

 Cp, KJ/(KG)(K)   14.6675  14.6724  14.6774  14.6824  14.6875  14.6927  14.6265  14.6308
 CONDUCTIVITY      3.6347   3.6523   3.6698   3.6874   3.7049   3.7224   3.4766   3.4942
 PRANDTL NUMBER    0.6901   0.6901   0.6902   0.6902   0.6902   0.6903   0.6898   0.6898

  WITH FROZEN REACTIONS

 Cp, KJ/(KG)(K)   14.6675  14.6724  14.6774  14.6824  14.6875  14.6927  14.6265  14.6308
 CONDUCTIVITY      3.6347   3.6523   3.6698   3.6874   3.7049   3.7224   3.4766   3.4942
 PRANDTL NUMBER    0.6901   0.6901   0.6902   0.6902   0.6902   0.6903   0.6898   0.6898

 MOLE FRACTIONS

 *H2              1.00000  1.00000  1.00000  1.00000  1.00000  1.00000  1.00000  1.00000

  * THERMODYNAMIC PROPERTIES FITTED TO 20000.K

 NOTE. WEIGHT FRACTION OF FUEL IN TOTAL FUELS AND OF OXIDANT IN TOTAL OXIDANTS









               THERMODYNAMIC EQUILIBRIUM PROPERTIES AT ASSIGNED

                           TEMPERATURE AND PRESSURE

 CASE =                

             REACTANT                    WT FRACTION      ENERGY      TEMP
                                          (SEE NOTE)     KJ/KG-MOL      K  
             H2                           1.0000000         0.000      0.000

 O/F=    0.00000  %FUEL=100.000000  R,EQ.RATIO= 0.000000  PHI,EQ.RATIO= 0.000000

 THERMODYNAMIC PROPERTIES

 P, BAR           0.02800  0.02800  0.02800  0.02800  0.02800  0.02800  0.02800  0.02800
 T, K              735.00   740.00   745.00   750.00   755.00   760.00   765.00   770.00
 RHO, KG/CU M    9.2364-4 9.1740-4 9.1124-4 9.0517-4 8.9917-4 8.9326-4 8.8742-4 8.8165-4
 H, KJ/KG         6339.58  6412.76  6485.97  6559.20  6632.46  6705.74  6779.04  6852.36
 U, KJ/KG         3308.09  3360.65  3413.24  3465.85  3518.48  3571.14  3623.82  3676.52
 G, KJ/KG        -61759.0 -62222.5 -62686.5 -63151.0 -63615.9 -64081.4 -64547.4 -65013.8
 S, KJ/(KG)(K)    92.6511  92.7503  92.8489  92.9469  93.0442  93.1410  93.2371  93.3327

 M, (1/n)           2.016    2.016    2.016    2.016    2.016    2.016    2.016    2.016
 (dLV/dLP)t      -0.99999 -0.99999 -0.99999 -0.99999 -0.99999 -0.99999 -0.99999 -0.99999
 (dLV/dLT)p        1.0000   1.0000   1.0000   1.0000   1.0000   1.0000   1.0000   1.0000
 Cp, KJ/(KG)(K)   14.6351  14.6396  14.6440  14.6486  14.6532  14.6579  14.6627  14.6675
 GAMMAs            1.3924   1.3923   1.3921   1.3919   1.3917   1.3916   1.3914   1.3912
 SON VEL,M/SEC     2054.5   2061.4   2068.2   2075.0   2081.8   2088.5   2095.3   2102.0

 TRANSPORT PROPERTIES (GASES ONLY)
   CONDUCTIVITY IN UNITS OF MILLIWATTS/(CM)(K)

 VISC,MILLIPOISE  0.16554  0.16632  0.16711  0.16789  0.16867  0.16945  0.17023  0.17101

  WITH EQUILIBRIUM REACTIONS

 Cp, KJ/(KG)(K)   14.6351  14.6396  14.6440  14.6486  14.6532  14.6579  14.6627  14.6675
 CONDUCTIVITY      3.5118   3.5294   3.5469   3.5645   3.5821   3.5996   3.6172   3.6347
 PRANDTL NUMBER    0.6899   0.6899   0.6899   0.6900   0.6900   0.6900   0.6901   0.6901

  WITH FROZEN REACTIONS

 Cp, KJ/(KG)(K)   14.6351  14.6396  14.6440  14.6486  14.6532  14.6579  14.6627  14.6675
 CONDUCTIVITY      3.5118   3.5294   3.5469   3.5645   3.5821   3.5996   3.6172   3.6347
 PRANDTL NUMBER    0.6899   0.6899   0.6899   0.6900   0.6900   0.6900   0.6901   0.6901

 MOLE FRACTIONS

 *H2              1.00000  1.00000  1.00000  1.00000  1.00000  1.00000  1.00000  1.00000

  * THERMODYNAMIC PROPERTIES FITTED TO 20000.K

 NOTE. WEIGHT FRACTION OF FUEL IN TOTAL FUELS AND OF OXIDANT IN TOTAL OXIDANTS









               THERMODYNAMIC EQUILIBRIUM PROPERTIES AT ASSIGNED

                           TEMPERATURE AND PRESSURE

 CASE =                

             REACTANT                    WT FRACTION      ENERGY      TEMP
                                          (SEE NOTE)     KJ/KG-MOL      K  
             H2                           1.0000000         0.000      0.000

 O/F=    0.00000  %FUEL=100.000000  R,EQ.RATIO= 0.000000  PHI,EQ.RATIO= 0.000000

 THERMODYNAMIC PROPERTIES

 P, BAR           0.02800  0.02800  0.02800  0.02800  0.02800  0.03100  0.03100  0.03100
 T, K              775.00   780.00   785.00   790.00   795.00   725.00   730.00   735.00
 RHO, KG/CU M    8.7597-4 8.7035-4 8.6481-4 8.5933-4 8.5393-4 1.0367-3 1.0296-3 1.0226-3
 H, KJ/KG         6925.71  6999.09  7072.49  7145.91  7219.36  6193.28  6266.42  6339.58
 U, KJ/KG         3729.25  3782.00  3834.78  3887.58  3940.41  3203.03  3255.55  3308.09
 G, KJ/KG        -65480.7 -65948.1 -66415.9 -66884.2 -67353.0 -60529.2 -60989.6 -61450.4
 S, KJ/(KG)(K)    93.4276  93.5220  93.6158  93.7090  93.8017  92.0310  92.1315  92.2313

 M, (1/n)           2.016    2.016    2.016    2.016    2.016    2.016    2.016    2.016
 (dLV/dLP)t      -0.99999 -0.99999 -0.99999 -0.99999 -0.99999 -0.99999 -0.99999 -0.99999
 (dLV/dLT)p        1.0000   1.0000   1.0000   1.0000   1.0000   1.0000   1.0000   1.0000
 Cp, KJ/(KG)(K)   14.6724  14.6774  14.6824  14.6875  14.6927  14.6265  14.6308  14.6351
 GAMMAs            1.3910   1.3909   1.3907   1.3905   1.3903   1.3927   1.3926   1.3924
 SON VEL,M/SEC     2108.6   2115.3   2121.9   2128.5   2135.1   2040.8   2047.7   2054.5

 TRANSPORT PROPERTIES (GASES ONLY)
   CONDUCTIVITY IN UNITS OF MILLIWATTS/(CM)(K)

 VISC,MILLIPOISE  0.17179  0.17256  0.17334  0.17411  0.17488  0.16396  0.16475  0.16554

  WITH EQUILIBRIUM REACTIONS

 Cp, KJ/(KG)(K)   14.6724  14.6774  14.6824  14.6875  14.6927  14.6265  14.6308  14.6351
 CONDUCTIVITY      3.6523   3.6698   3.6874   3.7049   3.7224   3.4766   3.4942   3.5118
 PRANDTL NUMBER    0.6901   0.6902   0.6902   0.6902   0.6903   0.6898   0.6898   0.6899

  WITH FROZEN REACTIONS

 Cp, KJ/(KG)(K)   14.6724  14.6774  14.6824  14.6875  14.6927  14.6265  14.6308  14.6351
 CONDUCTIVITY      3.6523   3.6698   3.6874   3.7049   3.7224   3.4766   3.4942   3.5118
 PRANDTL NUMBER    0.6901   0.6902   0.6902   0.6902   0.6903   0.6898   0.6898   0.6899

 MOLE FRACTIONS

 *H2              1.00000  1.00000  1.00000  1.00000  1.00000  1.00000  1.00000  1.00000

  * THERMODYNAMIC PROPERTIES FITTED TO 20000.K

 NOTE. WEIGHT FRACTION OF FUEL IN TOTAL FUELS AND OF OXIDANT IN TOTAL OXIDANTS









               THERMODYNAMIC EQUILIBRIUM PROPERTIES AT ASSIGNED

                           TEMPERATURE AND PRESSURE

 CASE =                

             REACTANT                    WT FRACTION      ENERGY      TEMP
                                          (SEE NOTE)     KJ/KG-MOL      K  
             H2                           1.0000000         0.000      0.000

 O/F=    0.00000  %FUEL=100.000000  R,EQ.RATIO= 0.000000  PHI,EQ.RATIO= 0.000000

 THERMODYNAMIC PROPERTIES

 P, BAR           0.03100  0.03100  0.03100  0.03100  0.03100  0.03100  0.03100  0.03100
 T, K              740.00   745.00   750.00   755.00   760.00   765.00   770.00   775.00
 RHO, KG/CU M    1.0157-3 1.0089-3 1.0021-3 9.9551-4 9.8896-4 9.8250-4 9.7612-4 9.6982-4
 H, KJ/KG         6412.76  6485.97  6559.20  6632.46  6705.74  6779.04  6852.36  6925.71
 U, KJ/KG         3360.65  3413.24  3465.85  3518.48  3571.14  3623.82  3676.52  3729.25
 G, KJ/KG        -61911.8 -62373.7 -62836.1 -63299.0 -63762.4 -64226.2 -64690.5 -65155.3
 S, KJ/(KG)(K)    92.3305  92.4291  92.5271  92.6244  92.7212  92.8173  92.9129  93.0078

 M, (1/n)           2.016    2.016    2.016    2.016    2.016    2.016    2.016    2.016
 (dLV/dLP)t      -0.99999 -0.99999 -0.99999 -0.99999 -0.99999 -0.99999 -0.99999 -0.99999
 (dLV/dLT)p        1.0000   1.0000   1.0000   1.0000   1.0000   1.0000   1.0000   1.0000
 Cp, KJ/(KG)(K)   14.6396  14.6440  14.6486  14.6532  14.6579  14.6627  14.6675  14.6724
 GAMMAs            1.3923   1.3921   1.3919   1.3917   1.3916   1.3914   1.3912   1.3910
 SON VEL,M/SEC     2061.4   2068.2   2075.0   2081.8   2088.5   2095.3   2102.0   2108.6

 TRANSPORT PROPERTIES (GASES ONLY)
   CONDUCTIVITY IN UNITS OF MILLIWATTS/(CM)(K)

 VISC,MILLIPOISE  0.16632  0.16711  0.16789  0.16867  0.16945  0.17023  0.17101  0.17179

  WITH EQUILIBRIUM REACTIONS

 Cp, KJ/(KG)(K)   14.6396  14.6440  14.6486  14.6532  14.6579  14.6627  14.6675  14.6724
 CONDUCTIVITY      3.5294   3.5469   3.5645   3.5821   3.5996   3.6172   3.6347   3.6523
 PRANDTL NUMBER    0.6899   0.6899   0.6900   0.6900   0.6900   0.6901   0.6901   0.6901

  WITH FROZEN REACTIONS

 Cp, KJ/(KG)(K)   14.6396  14.6440  14.6486  14.6532  14.6579  14.6627  14.6675  14.6724
 CONDUCTIVITY      3.5294   3.5469   3.5645   3.5821   3.5996   3.6172   3.6347   3.6523
 PRANDTL NUMBER    0.6899   0.6899   0.6900   0.6900   0.6900   0.6901   0.6901   0.6901

 MOLE FRACTIONS

 *H2              1.00000  1.00000  1.00000  1.00000  1.00000  1.00000  1.00000  1.00000

  * THERMODYNAMIC PROPERTIES FITTED TO 20000.K

 NOTE. WEIGHT FRACTION OF FUEL IN TOTAL FUELS AND OF OXIDANT IN TOTAL OXIDANTS









               THERMODYNAMIC EQUILIBRIUM PROPERTIES AT ASSIGNED

                           TEMPERATURE AND PRESSURE

 CASE =                

             REACTANT                    WT FRACTION      ENERGY      TEMP
                                          (SEE NOTE)     KJ/KG-MOL      K  
             H2                           1.0000000         0.000      0.000

 O/F=    0.00000  %FUEL=100.000000  R,EQ.RATIO= 0.000000  PHI,EQ.RATIO= 0.000000

 THERMODYNAMIC PROPERTIES

 P, BAR           0.03100  0.03100  0.03100  0.03100  0.03500  0.03500  0.03500  0.03500
 T, K              780.00   785.00   790.00   795.00   725.00   730.00   735.00   740.00
 RHO, KG/CU M    9.6360-4 9.5747-4 9.5141-4 9.4542-4 1.1705-3 1.1625-3 1.1545-3 1.1467-3
 H, KJ/KG         6999.09  7072.49  7145.91  7219.36  6193.28  6266.42  6339.58  6412.76
 U, KJ/KG         3782.00  3834.78  3887.58  3940.41  3203.03  3255.55  3308.09  3360.65
 G, KJ/KG        -65620.6 -66086.4 -66552.6 -67019.2 -60166.3 -60624.2 -61082.5 -61541.4
 S, KJ/(KG)(K)    93.1022  93.1960  93.2892  93.3819  91.5305  91.6309  91.7308  91.8300

 M, (1/n)           2.016    2.016    2.016    2.016    2.016    2.016    2.016    2.016
 (dLV/dLP)t      -0.99999 -0.99999 -0.99999 -0.99999 -0.99999 -0.99999 -0.99999 -0.99999
 (dLV/dLT)p        1.0000   1.0000   1.0000   1.0000   1.0000   1.0000   1.0000   1.0000
 Cp, KJ/(KG)(K)   14.6774  14.6824  14.6875  14.6927  14.6265  14.6308  14.6351  14.6396
 GAMMAs            1.3909   1.3907   1.3905   1.3903   1.3927   1.3926   1.3924   1.3923
 SON VEL,M/SEC     2115.3   2121.9   2128.5   2135.1   2040.8   2047.7   2054.5   2061.4

 TRANSPORT PROPERTIES (GASES ONLY)
   CONDUCTIVITY IN UNITS OF MILLIWATTS/(CM)(K)

 VISC,MILLIPOISE  0.17256  0.17334  0.17411  0.17488  0.16396  0.16475  0.16554  0.16632

  WITH EQUILIBRIUM REACTIONS

 Cp, KJ/(KG)(K)   14.6774  14.6824  14.6875  14.6927  14.6265  14.6308  14.6351  14.6396
 CONDUCTIVITY      3.6698   3.6874   3.7049   3.7224   3.4766   3.4942   3.5118   3.5294
 PRANDTL NUMBER    0.6902   0.6902   0.6902   0.6903   0.6898   0.6898   0.6899   0.6899

  WITH FROZEN REACTIONS

 Cp, KJ/(KG)(K)   14.6774  14.6824  14.6875  14.6927  14.6265  14.6308  14.6351  14.6396
 CONDUCTIVITY      3.6698   3.6874   3.7049   3.7224   3.4766   3.4942   3.5118   3.5294
 PRANDTL NUMBER    0.6902   0.6902   0.6902   0.6903   0.6898   0.6898   0.6899   0.6899

 MOLE FRACTIONS

 *H2              1.00000  1.00000  1.00000  1.00000  1.00000  1.00000  1.00000  1.00000

  * THERMODYNAMIC PROPERTIES FITTED TO 20000.K

 NOTE. WEIGHT FRACTION OF FUEL IN TOTAL FUELS AND OF OXIDANT IN TOTAL OXIDANTS









               THERMODYNAMIC EQUILIBRIUM PROPERTIES AT ASSIGNED

                           TEMPERATURE AND PRESSURE

 CASE =                

             REACTANT                    WT FRACTION      ENERGY      TEMP
                                          (SEE NOTE)     KJ/KG-MOL      K  
             H2                           1.0000000         0.000      0.000

 O/F=    0.00000  %FUEL=100.000000  R,EQ.RATIO= 0.000000  PHI,EQ.RATIO= 0.000000

 THERMODYNAMIC PROPERTIES

 P, BAR           0.03500  0.03500  0.03500  0.03500  0.03500  0.03500  0.03500  0.03500
 T, K              745.00   750.00   755.00   760.00   765.00   770.00   775.00   780.00
 RHO, KG/CU M    1.1391-3 1.1315-3 1.1240-3 1.1166-3 1.1093-3 1.1021-3 1.0950-3 1.0879-3
 H, KJ/KG         6485.97  6559.20  6632.46  6705.74  6779.04  6852.36  6925.71  6999.09
 U, KJ/KG         3413.24  3465.85  3518.48  3571.14  3623.82  3676.52  3729.25  3782.00
 G, KJ/KG        -62000.8 -62460.7 -62921.1 -63381.9 -63843.3 -64305.1 -64767.4 -65230.2
 S, KJ/(KG)(K)    91.9286  92.0265  92.1239  92.2206  92.3168  92.4123  92.5073  92.6016

 M, (1/n)           2.016    2.016    2.016    2.016    2.016    2.016    2.016    2.016
 (dLV/dLP)t      -0.99999 -0.99999 -0.99999 -0.99999 -0.99999 -0.99999 -0.99999 -0.99999
 (dLV/dLT)p        1.0000   1.0000   1.0000   1.0000   1.0000   1.0000   1.0000   1.0000
 Cp, KJ/(KG)(K)   14.6440  14.6486  14.6532  14.6579  14.6627  14.6675  14.6724  14.6774
 GAMMAs            1.3921   1.3919   1.3917   1.3916   1.3914   1.3912   1.3910   1.3909
 SON VEL,M/SEC     2068.2   2075.0   2081.8   2088.5   2095.3   2102.0   2108.6   2115.3

 TRANSPORT PROPERTIES (GASES ONLY)
   CONDUCTIVITY IN UNITS OF MILLIWATTS/(CM)(K)

 VISC,MILLIPOISE  0.16711  0.16789  0.16867  0.16945  0.17023  0.17101  0.17179  0.17256

  WITH EQUILIBRIUM REACTIONS

 Cp, KJ/(KG)(K)   14.6440  14.6486  14.6532  14.6579  14.6627  14.6675  14.6724  14.6774
 CONDUCTIVITY      3.5469   3.5645   3.5821   3.5996   3.6172   3.6347   3.6523   3.6698
 PRANDTL NUMBER    0.6899   0.6900   0.6900   0.6900   0.6901   0.6901   0.6901   0.6902

  WITH FROZEN REACTIONS

 Cp, KJ/(KG)(K)   14.6440  14.6486  14.6532  14.6579  14.6627  14.6675  14.6724  14.6774
 CONDUCTIVITY      3.5469   3.5645   3.5821   3.5996   3.6172   3.6347   3.6523   3.6698
 PRANDTL NUMBER    0.6899   0.6900   0.6900   0.6900   0.6901   0.6901   0.6901   0.6902

 MOLE FRACTIONS

 *H2              1.00000  1.00000  1.00000  1.00000  1.00000  1.00000  1.00000  1.00000

  * THERMODYNAMIC PROPERTIES FITTED TO 20000.K

 NOTE. WEIGHT FRACTION OF FUEL IN TOTAL FUELS AND OF OXIDANT IN TOTAL OXIDANTS









               THERMODYNAMIC EQUILIBRIUM PROPERTIES AT ASSIGNED

                           TEMPERATURE AND PRESSURE

 CASE =                

             REACTANT                    WT FRACTION      ENERGY      TEMP
                                          (SEE NOTE)     KJ/KG-MOL      K  
             H2                           1.0000000         0.000      0.000

 O/F=    0.00000  %FUEL=100.000000  R,EQ.RATIO= 0.000000  PHI,EQ.RATIO= 0.000000

 THERMODYNAMIC PROPERTIES

 P, BAR           0.03500  0.03500  0.03500  0.03900  0.03900  0.03900  0.03900  0.03900
 T, K              785.00   790.00   795.00   725.00   730.00   735.00   740.00   745.00
 RHO, KG/CU M    1.0810-3 1.0742-3 1.0674-3 1.3042-3 1.2953-3 1.2865-3 1.2778-3 1.2692-3
 H, KJ/KG         7072.49  7145.91  7219.36  6193.28  6266.42  6339.58  6412.76  6485.97
 U, KJ/KG         3834.78  3887.58  3940.41  3203.03  3255.55  3308.09  3360.65  3413.24
 G, KJ/KG        -65693.4 -66157.1 -66621.3 -59842.7 -60298.3 -60754.5 -61211.1 -61668.3
 S, KJ/(KG)(K)    92.6954  92.7887  92.8813  91.0842  91.1846  91.2844  91.3837  91.4822

 M, (1/n)           2.016    2.016    2.016    2.016    2.016    2.016    2.016    2.016
 (dLV/dLP)t      -0.99999 -0.99999 -0.99999 -0.99999 -0.99999 -0.99999 -0.99999 -0.99999
 (dLV/dLT)p        1.0000   1.0000   1.0000   1.0000   1.0000   1.0000   1.0000   1.0000
 Cp, KJ/(KG)(K)   14.6824  14.6875  14.6927  14.6265  14.6308  14.6351  14.6396  14.6440
 GAMMAs            1.3907   1.3905   1.3903   1.3927   1.3926   1.3924   1.3923   1.3921
 SON VEL,M/SEC     2121.9   2128.5   2135.1   2040.8   2047.7   2054.5   2061.4   2068.2

 TRANSPORT PROPERTIES (GASES ONLY)
   CONDUCTIVITY IN UNITS OF MILLIWATTS/(CM)(K)

 VISC,MILLIPOISE  0.17334  0.17411  0.17488  0.16396  0.16475  0.16554  0.16632  0.16711

  WITH EQUILIBRIUM REACTIONS

 Cp, KJ/(KG)(K)   14.6824  14.6875  14.6927  14.6265  14.6308  14.6351  14.6396  14.6440
 CONDUCTIVITY      3.6874   3.7049   3.7224   3.4766   3.4942   3.5118   3.5294   3.5469
 PRANDTL NUMBER    0.6902   0.6902   0.6903   0.6898   0.6898   0.6899   0.6899   0.6899

  WITH FROZEN REACTIONS

 Cp, KJ/(KG)(K)   14.6824  14.6875  14.6927  14.6265  14.6308  14.6351  14.6396  14.6440
 CONDUCTIVITY      3.6874   3.7049   3.7224   3.4766   3.4942   3.5118   3.5294   3.5469
 PRANDTL NUMBER    0.6902   0.6902   0.6903   0.6898   0.6898   0.6899   0.6899   0.6899

 MOLE FRACTIONS

 *H2              1.00000  1.00000  1.00000  1.00000  1.00000  1.00000  1.00000  1.00000

  * THERMODYNAMIC PROPERTIES FITTED TO 20000.K

 NOTE. WEIGHT FRACTION OF FUEL IN TOTAL FUELS AND OF OXIDANT IN TOTAL OXIDANTS









               THERMODYNAMIC EQUILIBRIUM PROPERTIES AT ASSIGNED

                           TEMPERATURE AND PRESSURE

 CASE =                

             REACTANT                    WT FRACTION      ENERGY      TEMP
                                          (SEE NOTE)     KJ/KG-MOL      K  
             H2                           1.0000000         0.000      0.000

 O/F=    0.00000  %FUEL=100.000000  R,EQ.RATIO= 0.000000  PHI,EQ.RATIO= 0.000000

 THERMODYNAMIC PROPERTIES

 P, BAR           0.03900  0.03900  0.03900  0.03900  0.03900  0.03900  0.03900  0.03900
 T, K              750.00   755.00   760.00   765.00   770.00   775.00   780.00   785.00
 RHO, KG/CU M    1.2608-3 1.2524-3 1.2442-3 1.2360-3 1.2280-3 1.2201-3 1.2123-3 1.2046-3
 H, KJ/KG         6559.20  6632.46  6705.74  6779.04  6852.36  6925.71  6999.09  7072.49
 U, KJ/KG         3465.85  3518.48  3571.14  3623.82  3676.52  3729.25  3782.00  3834.78
 G, KJ/KG        -62126.0 -62584.1 -63042.7 -63501.8 -63961.4 -64421.5 -64882.0 -65343.1
 S, KJ/(KG)(K)    91.5802  91.6776  91.7743  91.8704  91.9660  92.0609  92.1553  92.2491

 M, (1/n)           2.016    2.016    2.016    2.016    2.016    2.016    2.016    2.016
 (dLV/dLP)t      -0.99999 -0.99999 -0.99999 -0.99999 -0.99999 -0.99999 -0.99999 -0.99999
 (dLV/dLT)p        1.0000   1.0000   1.0000   1.0000   1.0000   1.0000   1.0000   1.0000
 Cp, KJ/(KG)(K)   14.6486  14.6532  14.6579  14.6627  14.6675  14.6724  14.6774  14.6824
 GAMMAs            1.3919   1.3917   1.3916   1.3914   1.3912   1.3910   1.3909   1.3907
 SON VEL,M/SEC     2075.0   2081.8   2088.5   2095.3   2102.0   2108.6   2115.3   2121.9

 TRANSPORT PROPERTIES (GASES ONLY)
   CONDUCTIVITY IN UNITS OF MILLIWATTS/(CM)(K)

 VISC,MILLIPOISE  0.16789  0.16867  0.16945  0.17023  0.17101  0.17179  0.17256  0.17334

  WITH EQUILIBRIUM REACTIONS

 Cp, KJ/(KG)(K)   14.6486  14.6532  14.6579  14.6627  14.6675  14.6724  14.6774  14.6824
 CONDUCTIVITY      3.5645   3.5821   3.5996   3.6172   3.6347   3.6523   3.6698   3.6874
 PRANDTL NUMBER    0.6900   0.6900   0.6900   0.6901   0.6901   0.6901   0.6902   0.6902

  WITH FROZEN REACTIONS

 Cp, KJ/(KG)(K)   14.6486  14.6532  14.6579  14.6627  14.6675  14.6724  14.6774  14.6824
 CONDUCTIVITY      3.5645   3.5821   3.5996   3.6172   3.6347   3.6523   3.6698   3.6874
 PRANDTL NUMBER    0.6900   0.6900   0.6900   0.6901   0.6901   0.6901   0.6902   0.6902

 MOLE FRACTIONS

 *H2              1.00000  1.00000  1.00000  1.00000  1.00000  1.00000  1.00000  1.00000

  * THERMODYNAMIC PROPERTIES FITTED TO 20000.K

 NOTE. WEIGHT FRACTION OF FUEL IN TOTAL FUELS AND OF OXIDANT IN TOTAL OXIDANTS









               THERMODYNAMIC EQUILIBRIUM PROPERTIES AT ASSIGNED

                           TEMPERATURE AND PRESSURE

 CASE =                

             REACTANT                    WT FRACTION      ENERGY      TEMP
                                          (SEE NOTE)     KJ/KG-MOL      K  
             H2                           1.0000000         0.000      0.000

 O/F=    0.00000  %FUEL=100.000000  R,EQ.RATIO= 0.000000  PHI,EQ.RATIO= 0.000000

 THERMODYNAMIC PROPERTIES

 P, BAR           0.03900  0.03900  0.04400  0.04400  0.04400  0.04400  0.04400  0.04400
 T, K              790.00   795.00   725.00   730.00   735.00   740.00   745.00   750.00
 RHO, KG/CU M    1.1969-3 1.1894-3 1.4714-3 1.4614-3 1.4514-3 1.4416-3 1.4319-3 1.4224-3
 H, KJ/KG         7145.91  7219.36  6193.28  6266.42  6339.58  6412.76  6485.97  6559.20
 U, KJ/KG         3887.58  3940.41  3203.03  3255.55  3308.09  3360.65  3413.24  3465.85
 G, KJ/KG        -65804.5 -66266.5 -59482.0 -59935.1 -60388.8 -60843.0 -61297.6 -61752.8
 S, KJ/(KG)(K)    92.3423  92.4350  90.5866  90.6871  90.7869  90.8861  90.9847  91.0827

 M, (1/n)           2.016    2.016    2.016    2.016    2.016    2.016    2.016    2.016
 (dLV/dLP)t      -0.99999 -0.99999 -0.99999 -0.99999 -0.99999 -0.99999 -0.99999 -0.99999
 (dLV/dLT)p        1.0000   1.0000   1.0000   1.0000   1.0000   1.0000   1.0000   1.0000
 Cp, KJ/(KG)(K)   14.6875  14.6927  14.6265  14.6308  14.6351  14.6396  14.6440  14.6486
 GAMMAs            1.3905   1.3903   1.3927   1.3926   1.3924   1.3923   1.3921   1.3919
 SON VEL,M/SEC     2128.5   2135.1   2040.8   2047.7   2054.5   2061.4   2068.2   2075.0

 TRANSPORT PROPERTIES (GASES ONLY)
   CONDUCTIVITY IN UNITS OF MILLIWATTS/(CM)(K)

 VISC,MILLIPOISE  0.17411  0.17488  0.16396  0.16475  0.16554  0.16632  0.16711  0.16789

  WITH EQUILIBRIUM REACTIONS

 Cp, KJ/(KG)(K)   14.6875  14.6927  14.6265  14.6308  14.6351  14.6396  14.6440  14.6486
 CONDUCTIVITY      3.7049   3.7224   3.4766   3.4942   3.5118   3.5294   3.5469   3.5645
 PRANDTL NUMBER    0.6902   0.6903   0.6898   0.6898   0.6899   0.6899   0.6899   0.6900

  WITH FROZEN REACTIONS

 Cp, KJ/(KG)(K)   14.6875  14.6927  14.6265  14.6308  14.6351  14.6396  14.6440  14.6486
 CONDUCTIVITY      3.7049   3.7224   3.4766   3.4942   3.5118   3.5294   3.5469   3.5645
 PRANDTL NUMBER    0.6902   0.6903   0.6898   0.6898   0.6899   0.6899   0.6899   0.6900

 MOLE FRACTIONS

 *H2              1.00000  1.00000  1.00000  1.00000  1.00000  1.00000  1.00000  1.00000

  * THERMODYNAMIC PROPERTIES FITTED TO 20000.K

 NOTE. WEIGHT FRACTION OF FUEL IN TOTAL FUELS AND OF OXIDANT IN TOTAL OXIDANTS









               THERMODYNAMIC EQUILIBRIUM PROPERTIES AT ASSIGNED

                           TEMPERATURE AND PRESSURE

 CASE =                

             REACTANT                    WT FRACTION      ENERGY      TEMP
                                          (SEE NOTE)     KJ/KG-MOL      K  
             H2                           1.0000000         0.000      0.000

 O/F=    0.00000  %FUEL=100.000000  R,EQ.RATIO= 0.000000  PHI,EQ.RATIO= 0.000000

 THERMODYNAMIC PROPERTIES

 P, BAR           0.04400  0.04400  0.04400  0.04400  0.04400  0.04400  0.04400  0.04400
 T, K              755.00   760.00   765.00   770.00   775.00   780.00   785.00   790.00
 RHO, KG/CU M    1.4130-3 1.4037-3 1.3945-3 1.3855-3 1.3765-3 1.3677-3 1.3590-3 1.3504-3
 H, KJ/KG         6632.46  6705.74  6779.04  6852.36  6925.71  6999.09  7072.49  7145.91
 U, KJ/KG         3518.48  3571.14  3623.82  3676.52  3729.25  3782.00  3834.78  3887.58
 G, KJ/KG        -62208.5 -62664.6 -63121.2 -63578.3 -64035.9 -64494.0 -64952.5 -65411.5
 S, KJ/(KG)(K)    91.1800  91.2768  91.3729  91.4684  91.5634  91.6578  91.7516  91.8448

 M, (1/n)           2.016    2.016    2.016    2.016    2.016    2.016    2.016    2.016
 (dLV/dLP)t      -0.99999 -0.99999 -0.99999 -0.99999 -0.99999 -0.99999 -0.99999 -0.99999
 (dLV/dLT)p        1.0000   1.0000   1.0000   1.0000   1.0000   1.0000   1.0000   1.0000
 Cp, KJ/(KG)(K)   14.6532  14.6579  14.6627  14.6675  14.6724  14.6774  14.6824  14.6875
 GAMMAs            1.3917   1.3916   1.3914   1.3912   1.3910   1.3909   1.3907   1.3905
 SON VEL,M/SEC     2081.8   2088.5   2095.3   2102.0   2108.6   2115.3   2121.9   2128.5

 TRANSPORT PROPERTIES (GASES ONLY)
   CONDUCTIVITY IN UNITS OF MILLIWATTS/(CM)(K)

 VISC,MILLIPOISE  0.16867  0.16945  0.17023  0.17101  0.17179  0.17256  0.17334  0.17411

  WITH EQUILIBRIUM REACTIONS

 Cp, KJ/(KG)(K)   14.6532  14.6579  14.6627  14.6675  14.6724  14.6774  14.6824  14.6875
 CONDUCTIVITY      3.5821   3.5996   3.6172   3.6347   3.6523   3.6698   3.6874   3.7049
 PRANDTL NUMBER    0.6900   0.6900   0.6901   0.6901   0.6901   0.6902   0.6902   0.6902

  WITH FROZEN REACTIONS

 Cp, KJ/(KG)(K)   14.6532  14.6579  14.6627  14.6675  14.6724  14.6774  14.6824  14.6875
 CONDUCTIVITY      3.5821   3.5996   3.6172   3.6347   3.6523   3.6698   3.6874   3.7049
 PRANDTL NUMBER    0.6900   0.6900   0.6901   0.6901   0.6901   0.6902   0.6902   0.6902

 MOLE FRACTIONS

 *H2              1.00000  1.00000  1.00000  1.00000  1.00000  1.00000  1.00000  1.00000

  * THERMODYNAMIC PROPERTIES FITTED TO 20000.K

 NOTE. WEIGHT FRACTION OF FUEL IN TOTAL FUELS AND OF OXIDANT IN TOTAL OXIDANTS









               THERMODYNAMIC EQUILIBRIUM PROPERTIES AT ASSIGNED

                           TEMPERATURE AND PRESSURE

 CASE =                

             REACTANT                    WT FRACTION      ENERGY      TEMP
                                          (SEE NOTE)     KJ/KG-MOL      K  
             H2                           1.0000000         0.000      0.000

 O/F=    0.00000  %FUEL=100.000000  R,EQ.RATIO= 0.000000  PHI,EQ.RATIO= 0.000000

 THERMODYNAMIC PROPERTIES

 P, BAR           0.04400  0.04900  0.04900  0.04900  0.04900  0.04900  0.04900  0.04900
 T, K              795.00   725.00   730.00   735.00   740.00   745.00   750.00   755.00
 RHO, KG/CU M    1.3419-3 1.6387-3 1.6274-3 1.6164-3 1.6054-3 1.5947-3 1.5840-3 1.5735-3
 H, KJ/KG         7219.36  6193.28  6266.42  6339.58  6412.76  6485.97  6559.20  6632.46
 U, KJ/KG         3940.41  3203.03  3255.55  3308.09  3360.65  3413.24  3465.85  3518.48
 G, KJ/KG        -65870.9 -59160.2 -59611.1 -60062.5 -60514.5 -60966.9 -61419.9 -61873.3
 S, KJ/(KG)(K)    91.9375  90.1427  90.2431  90.3430  90.4422  90.5408  90.6388  90.7361

 M, (1/n)           2.016    2.016    2.016    2.016    2.016    2.016    2.016    2.016
 (dLV/dLP)t      -0.99999 -0.99999 -0.99999 -0.99999 -0.99999 -0.99999 -0.99999 -0.99999
 (dLV/dLT)p        1.0000   1.0000   1.0000   1.0000   1.0000   1.0000   1.0000   1.0000
 Cp, KJ/(KG)(K)   14.6927  14.6265  14.6308  14.6351  14.6396  14.6440  14.6486  14.6532
 GAMMAs            1.3903   1.3927   1.3926   1.3924   1.3923   1.3921   1.3919   1.3917
 SON VEL,M/SEC     2135.1   2040.8   2047.7   2054.5   2061.4   2068.2   2075.0   2081.8

 TRANSPORT PROPERTIES (GASES ONLY)
   CONDUCTIVITY IN UNITS OF MILLIWATTS/(CM)(K)

 VISC,MILLIPOISE  0.17488  0.16396  0.16475  0.16554  0.16632  0.16711  0.16789  0.16867

  WITH EQUILIBRIUM REACTIONS

 Cp, KJ/(KG)(K)   14.6927  14.6265  14.6308  14.6351  14.6396  14.6440  14.6486  14.6532
 CONDUCTIVITY      3.7224   3.4766   3.4942   3.5118   3.5294   3.5469   3.5645   3.5821
 PRANDTL NUMBER    0.6903   0.6898   0.6898   0.6899   0.6899   0.6899   0.6900   0.6900

  WITH FROZEN REACTIONS

 Cp, KJ/(KG)(K)   14.6927  14.6265  14.6308  14.6351  14.6396  14.6440  14.6486  14.6532
 CONDUCTIVITY      3.7224   3.4766   3.4942   3.5118   3.5294   3.5469   3.5645   3.5821
 PRANDTL NUMBER    0.6903   0.6898   0.6898   0.6899   0.6899   0.6899   0.6900   0.6900

 MOLE FRACTIONS

 *H2              1.00000  1.00000  1.00000  1.00000  1.00000  1.00000  1.00000  1.00000

  * THERMODYNAMIC PROPERTIES FITTED TO 20000.K

 NOTE. WEIGHT FRACTION OF FUEL IN TOTAL FUELS AND OF OXIDANT IN TOTAL OXIDANTS









               THERMODYNAMIC EQUILIBRIUM PROPERTIES AT ASSIGNED

                           TEMPERATURE AND PRESSURE

 CASE =                

             REACTANT                    WT FRACTION      ENERGY      TEMP
                                          (SEE NOTE)     KJ/KG-MOL      K  
             H2                           1.0000000         0.000      0.000

 O/F=    0.00000  %FUEL=100.000000  R,EQ.RATIO= 0.000000  PHI,EQ.RATIO= 0.000000

 THERMODYNAMIC PROPERTIES

 P, BAR           0.04900  0.04900  0.04900  0.04900  0.04900  0.04900  0.04900  0.04900
 T, K              760.00   765.00   770.00   775.00   780.00   785.00   790.00   795.00
 RHO, KG/CU M    1.5632-3 1.5530-3 1.5429-3 1.5329-3 1.5231-3 1.5134-3 1.5038-3 1.4944-3
 H, KJ/KG         6705.74  6779.04  6852.36  6925.71  6999.09  7072.49  7145.91  7219.36
 U, KJ/KG         3571.14  3623.82  3676.52  3729.25  3782.00  3834.78  3887.58  3940.41
 G, KJ/KG        -62327.2 -62781.6 -63236.5 -63691.9 -64147.7 -64604.0 -65060.8 -65518.0
 S, KJ/(KG)(K)    90.8328  90.9290  91.0245  91.1195  91.2138  91.3076  91.4009  91.4936

 M, (1/n)           2.016    2.016    2.016    2.016    2.016    2.016    2.016    2.016
 (dLV/dLP)t      -0.99999 -0.99999 -0.99999 -0.99999 -0.99999 -0.99999 -0.99999 -0.99999
 (dLV/dLT)p        1.0000   1.0000   1.0000   1.0000   1.0000   1.0000   1.0000   1.0000
 Cp, KJ/(KG)(K)   14.6579  14.6627  14.6675  14.6724  14.6774  14.6824  14.6875  14.6927
 GAMMAs            1.3916   1.3914   1.3912   1.3910   1.3909   1.3907   1.3905   1.3903
 SON VEL,M/SEC     2088.5   2095.3   2102.0   2108.6   2115.3   2121.9   2128.5   2135.1

 TRANSPORT PROPERTIES (GASES ONLY)
   CONDUCTIVITY IN UNITS OF MILLIWATTS/(CM)(K)

 VISC,MILLIPOISE  0.16945  0.17023  0.17101  0.17179  0.17256  0.17334  0.17411  0.17488

  WITH EQUILIBRIUM REACTIONS

 Cp, KJ/(KG)(K)   14.6579  14.6627  14.6675  14.6724  14.6774  14.6824  14.6875  14.6927
 CONDUCTIVITY      3.5996   3.6172   3.6347   3.6523   3.6698   3.6874   3.7049   3.7224
 PRANDTL NUMBER    0.6900   0.6901   0.6901   0.6901   0.6902   0.6902   0.6902   0.6903

  WITH FROZEN REACTIONS

 Cp, KJ/(KG)(K)   14.6579  14.6627  14.6675  14.6724  14.6774  14.6824  14.6875  14.6927
 CONDUCTIVITY      3.5996   3.6172   3.6347   3.6523   3.6698   3.6874   3.7049   3.7224
 PRANDTL NUMBER    0.6900   0.6901   0.6901   0.6901   0.6902   0.6902   0.6902   0.6903

 MOLE FRACTIONS

 *H2              1.00000  1.00000  1.00000  1.00000  1.00000  1.00000  1.00000  1.00000

  * THERMODYNAMIC PROPERTIES FITTED TO 20000.K

 NOTE. WEIGHT FRACTION OF FUEL IN TOTAL FUELS AND OF OXIDANT IN TOTAL OXIDANTS









               THERMODYNAMIC EQUILIBRIUM PROPERTIES AT ASSIGNED

                           TEMPERATURE AND PRESSURE

 CASE =                

             REACTANT                    WT FRACTION      ENERGY      TEMP
                                          (SEE NOTE)     KJ/KG-MOL      K  
             H2                           1.0000000         0.000      0.000

 O/F=    0.00000  %FUEL=100.000000  R,EQ.RATIO= 0.000000  PHI,EQ.RATIO= 0.000000

 THERMODYNAMIC PROPERTIES

 P, BAR           0.05400  0.05400  0.05400  0.05400  0.05400  0.05400  0.05400  0.05400
 T, K              725.00   730.00   735.00   740.00   745.00   750.00   755.00   760.00
 RHO, KG/CU M    1.8059-3 1.7935-3 1.7813-3 1.7693-3 1.7574-3 1.7457-3 1.7341-3 1.7227-3
 H, KJ/KG         6193.28  6266.42  6339.58  6412.76  6485.97  6559.20  6632.46  6705.74
 U, KJ/KG         3203.03  3255.55  3308.09  3360.65  3413.24  3465.85  3518.48  3571.14
 G, KJ/KG        -58869.6 -59318.5 -59768.0 -60217.9 -60668.4 -61119.3 -61570.7 -62022.7
 S, KJ/(KG)(K)    89.7419  89.8424  89.9422  90.0414  90.1400  90.2380  90.3354  90.4321

 M, (1/n)           2.016    2.016    2.016    2.016    2.016    2.016    2.016    2.016
 (dLV/dLP)t      -0.99999 -0.99999 -0.99999 -0.99999 -0.99999 -0.99999 -0.99999 -0.99999
 (dLV/dLT)p        1.0000   1.0000   1.0000   1.0000   1.0000   1.0000   1.0000   1.0000
 Cp, KJ/(KG)(K)   14.6265  14.6308  14.6351  14.6396  14.6440  14.6486  14.6532  14.6579
 GAMMAs            1.3927   1.3926   1.3924   1.3923   1.3921   1.3919   1.3917   1.3916
 SON VEL,M/SEC     2040.8   2047.7   2054.5   2061.4   2068.2   2075.0   2081.8   2088.5

 TRANSPORT PROPERTIES (GASES ONLY)
   CONDUCTIVITY IN UNITS OF MILLIWATTS/(CM)(K)

 VISC,MILLIPOISE  0.16396  0.16475  0.16554  0.16632  0.16711  0.16789  0.16867  0.16945

  WITH EQUILIBRIUM REACTIONS

 Cp, KJ/(KG)(K)   14.6265  14.6308  14.6351  14.6396  14.6440  14.6486  14.6532  14.6579
 CONDUCTIVITY      3.4766   3.4942   3.5118   3.5294   3.5469   3.5645   3.5821   3.5996
 PRANDTL NUMBER    0.6898   0.6898   0.6899   0.6899   0.6899   0.6900   0.6900   0.6900

  WITH FROZEN REACTIONS

 Cp, KJ/(KG)(K)   14.6265  14.6308  14.6351  14.6396  14.6440  14.6486  14.6532  14.6579
 CONDUCTIVITY      3.4766   3.4942   3.5118   3.5294   3.5469   3.5645   3.5821   3.5996
 PRANDTL NUMBER    0.6898   0.6898   0.6899   0.6899   0.6899   0.6900   0.6900   0.6900

 MOLE FRACTIONS

 *H2              1.00000  1.00000  1.00000  1.00000  1.00000  1.00000  1.00000  1.00000

  * THERMODYNAMIC PROPERTIES FITTED TO 20000.K

 NOTE. WEIGHT FRACTION OF FUEL IN TOTAL FUELS AND OF OXIDANT IN TOTAL OXIDANTS









               THERMODYNAMIC EQUILIBRIUM PROPERTIES AT ASSIGNED

                           TEMPERATURE AND PRESSURE

 CASE =                

             REACTANT                    WT FRACTION      ENERGY      TEMP
                                          (SEE NOTE)     KJ/KG-MOL      K  
             H2                           1.0000000         0.000      0.000

 O/F=    0.00000  %FUEL=100.000000  R,EQ.RATIO= 0.000000  PHI,EQ.RATIO= 0.000000

 THERMODYNAMIC PROPERTIES

 P, BAR           0.05400  0.05400  0.05400  0.05400  0.05400  0.05400  0.05400  0.06000
 T, K              765.00   770.00   775.00   780.00   785.00   790.00   795.00   725.00
 RHO, KG/CU M    1.7114-3 1.7003-3 1.6894-3 1.6785-3 1.6678-3 1.6573-3 1.6469-3 2.0065-3
 H, KJ/KG         6779.04  6852.36  6925.71  6999.09  7072.49  7145.91  7219.36  6193.28
 U, KJ/KG         3623.82  3676.52  3729.25  3782.00  3834.78  3887.58  3940.41  3203.03
 G, KJ/KG        -62475.1 -62927.9 -63381.3 -63835.1 -64289.4 -64744.2 -65199.4 -58554.6
 S, KJ/(KG)(K)    90.5282  90.6238  90.7187  90.8131  90.9069  91.0001  91.0928  89.3074

 M, (1/n)           2.016    2.016    2.016    2.016    2.016    2.016    2.016    2.016
 (dLV/dLP)t      -0.99999 -0.99999 -0.99999 -0.99999 -0.99999 -0.99999 -0.99999 -0.99999
 (dLV/dLT)p        1.0000   1.0000   1.0000   1.0000   1.0000   1.0000   1.0000   1.0000
 Cp, KJ/(KG)(K)   14.6627  14.6675  14.6724  14.6774  14.6824  14.6875  14.6927  14.6265
 GAMMAs            1.3914   1.3912   1.3910   1.3909   1.3907   1.3905   1.3903   1.3927
 SON VEL,M/SEC     2095.3   2102.0   2108.6   2115.3   2121.9   2128.5   2135.1   2040.8

 TRANSPORT PROPERTIES (GASES ONLY)
   CONDUCTIVITY IN UNITS OF MILLIWATTS/(CM)(K)

 VISC,MILLIPOISE  0.17023  0.17101  0.17179  0.17256  0.17334  0.17411  0.17488  0.16396

  WITH EQUILIBRIUM REACTIONS

 Cp, KJ/(KG)(K)   14.6627  14.6675  14.6724  14.6774  14.6824  14.6875  14.6927  14.6265
 CONDUCTIVITY      3.6172   3.6347   3.6523   3.6698   3.6874   3.7049   3.7224   3.4766
 PRANDTL NUMBER    0.6901   0.6901   0.6901   0.6902   0.6902   0.6902   0.6903   0.6898

  WITH FROZEN REACTIONS

 Cp, KJ/(KG)(K)   14.6627  14.6675  14.6724  14.6774  14.6824  14.6875  14.6927  14.6265
 CONDUCTIVITY      3.6172   3.6347   3.6523   3.6698   3.6874   3.7049   3.7224   3.4766
 PRANDTL NUMBER    0.6901   0.6901   0.6901   0.6902   0.6902   0.6902   0.6903   0.6898

 MOLE FRACTIONS

 *H2              1.00000  1.00000  1.00000  1.00000  1.00000  1.00000  1.00000  1.00000

  * THERMODYNAMIC PROPERTIES FITTED TO 20000.K

 NOTE. WEIGHT FRACTION OF FUEL IN TOTAL FUELS AND OF OXIDANT IN TOTAL OXIDANTS









               THERMODYNAMIC EQUILIBRIUM PROPERTIES AT ASSIGNED

                           TEMPERATURE AND PRESSURE

 CASE =                

             REACTANT                    WT FRACTION      ENERGY      TEMP
                                          (SEE NOTE)     KJ/KG-MOL      K  
             H2                           1.0000000         0.000      0.000

 O/F=    0.00000  %FUEL=100.000000  R,EQ.RATIO= 0.000000  PHI,EQ.RATIO= 0.000000

 THERMODYNAMIC PROPERTIES

 P, BAR           0.06000  0.06000  0.06000  0.06000  0.06000  0.06000  0.06000  0.06000
 T, K              730.00   735.00   740.00   745.00   750.00   755.00   760.00   765.00
 RHO, KG/CU M    1.9928-3 1.9792-3 1.9659-3 1.9527-3 1.9396-3 1.9268-3 1.9141-3 1.9016-3
 H, KJ/KG         6266.42  6339.58  6412.76  6485.97  6559.20  6632.46  6705.74  6779.04
 U, KJ/KG         3255.55  3308.09  3360.65  3413.24  3465.85  3518.48  3571.14  3623.82
 G, KJ/KG        -59001.3 -59448.6 -59896.3 -60344.6 -60793.4 -61242.6 -61692.4 -62142.6
 S, KJ/(KG)(K)    89.4078  89.5077  89.6069  89.7055  89.8034  89.9008  89.9975  90.0937

 M, (1/n)           2.016    2.016    2.016    2.016    2.016    2.016    2.016    2.016
 (dLV/dLP)t      -0.99999 -0.99999 -0.99999 -0.99999 -0.99999 -0.99999 -0.99999 -0.99999
 (dLV/dLT)p        1.0000   1.0000   1.0000   1.0000   1.0000   1.0000   1.0000   1.0000
 Cp, KJ/(KG)(K)   14.6308  14.6351  14.6396  14.6440  14.6486  14.6532  14.6579  14.6627
 GAMMAs            1.3926   1.3924   1.3923   1.3921   1.3919   1.3917   1.3916   1.3914
 SON VEL,M/SEC     2047.7   2054.5   2061.4   2068.2   2075.0   2081.8   2088.5   2095.3

 TRANSPORT PROPERTIES (GASES ONLY)
   CONDUCTIVITY IN UNITS OF MILLIWATTS/(CM)(K)

 VISC,MILLIPOISE  0.16475  0.16554  0.16632  0.16711  0.16789  0.16867  0.16945  0.17023

  WITH EQUILIBRIUM REACTIONS

 Cp, KJ/(KG)(K)   14.6308  14.6351  14.6396  14.6440  14.6486  14.6532  14.6579  14.6627
 CONDUCTIVITY      3.4942   3.5118   3.5294   3.5469   3.5645   3.5821   3.5996   3.6172
 PRANDTL NUMBER    0.6898   0.6899   0.6899   0.6899   0.6900   0.6900   0.6900   0.6901

  WITH FROZEN REACTIONS

 Cp, KJ/(KG)(K)   14.6308  14.6351  14.6396  14.6440  14.6486  14.6532  14.6579  14.6627
 CONDUCTIVITY      3.4942   3.5118   3.5294   3.5469   3.5645   3.5821   3.5996   3.6172
 PRANDTL NUMBER    0.6898   0.6899   0.6899   0.6899   0.6900   0.6900   0.6900   0.6901

 MOLE FRACTIONS

 *H2              1.00000  1.00000  1.00000  1.00000  1.00000  1.00000  1.00000  1.00000

  * THERMODYNAMIC PROPERTIES FITTED TO 20000.K

 NOTE. WEIGHT FRACTION OF FUEL IN TOTAL FUELS AND OF OXIDANT IN TOTAL OXIDANTS









               THERMODYNAMIC EQUILIBRIUM PROPERTIES AT ASSIGNED

                           TEMPERATURE AND PRESSURE

 CASE =                

             REACTANT                    WT FRACTION      ENERGY      TEMP
                                          (SEE NOTE)     KJ/KG-MOL      K  
             H2                           1.0000000         0.000      0.000

 O/F=    0.00000  %FUEL=100.000000  R,EQ.RATIO= 0.000000  PHI,EQ.RATIO= 0.000000

 THERMODYNAMIC PROPERTIES

 P, BAR           0.06000  0.06000  0.06000  0.06000  0.06000  0.06000  0.06700  0.06700
 T, K              770.00   775.00   780.00   785.00   790.00   795.00   725.00   730.00
 RHO, KG/CU M    1.8893-3 1.8771-3 1.8650-3 1.8532-3 1.8414-3 1.8298-3 2.2406-3 2.2253-3
 H, KJ/KG         6852.36  6925.71  6999.09  7072.49  7145.91  7219.36  6193.28  6266.42
 U, KJ/KG         3676.52  3729.25  3782.00  3834.78  3887.58  3940.41  3203.03  3255.55
 G, KJ/KG        -62593.3 -63044.5 -63496.2 -63948.3 -64400.9 -64853.9 -58224.6 -58669.0
 S, KJ/(KG)(K)    90.1892  90.2842  90.3785  90.4723  90.5656  90.6583  88.8523  88.9527

 M, (1/n)           2.016    2.016    2.016    2.016    2.016    2.016    2.016    2.016
 (dLV/dLP)t      -0.99999 -0.99999 -0.99999 -0.99999 -0.99999 -0.99999 -0.99999 -0.99999
 (dLV/dLT)p        1.0000   1.0000   1.0000   1.0000   1.0000   1.0000   1.0000   1.0000
 Cp, KJ/(KG)(K)   14.6675  14.6724  14.6774  14.6824  14.6875  14.6927  14.6265  14.6308
 GAMMAs            1.3912   1.3910   1.3909   1.3907   1.3905   1.3903   1.3927   1.3926
 SON VEL,M/SEC     2102.0   2108.6   2115.3   2121.9   2128.5   2135.1   2040.8   2047.7

 TRANSPORT PROPERTIES (GASES ONLY)
   CONDUCTIVITY IN UNITS OF MILLIWATTS/(CM)(K)

 VISC,MILLIPOISE  0.17101  0.17179  0.17256  0.17334  0.17411  0.17488  0.16396  0.16475

  WITH EQUILIBRIUM REACTIONS

 Cp, KJ/(KG)(K)   14.6675  14.6724  14.6774  14.6824  14.6875  14.6927  14.6265  14.6308
 CONDUCTIVITY      3.6347   3.6523   3.6698   3.6874   3.7049   3.7224   3.4766   3.4942
 PRANDTL NUMBER    0.6901   0.6901   0.6902   0.6902   0.6902   0.6903   0.6898   0.6898

  WITH FROZEN REACTIONS

 Cp, KJ/(KG)(K)   14.6675  14.6724  14.6774  14.6824  14.6875  14.6927  14.6265  14.6308
 CONDUCTIVITY      3.6347   3.6523   3.6698   3.6874   3.7049   3.7224   3.4766   3.4942
 PRANDTL NUMBER    0.6901   0.6901   0.6902   0.6902   0.6902   0.6903   0.6898   0.6898

 MOLE FRACTIONS

 *H2              1.00000  1.00000  1.00000  1.00000  1.00000  1.00000  1.00000  1.00000

  * THERMODYNAMIC PROPERTIES FITTED TO 20000.K

 NOTE. WEIGHT FRACTION OF FUEL IN TOTAL FUELS AND OF OXIDANT IN TOTAL OXIDANTS









               THERMODYNAMIC EQUILIBRIUM PROPERTIES AT ASSIGNED

                           TEMPERATURE AND PRESSURE

 CASE =                

             REACTANT                    WT FRACTION      ENERGY      TEMP
                                          (SEE NOTE)     KJ/KG-MOL      K  
             H2                           1.0000000         0.000      0.000

 O/F=    0.00000  %FUEL=100.000000  R,EQ.RATIO= 0.000000  PHI,EQ.RATIO= 0.000000

 THERMODYNAMIC PROPERTIES

 P, BAR           0.06700  0.06700  0.06700  0.06700  0.06700  0.06700  0.06700  0.06700
 T, K              735.00   740.00   745.00   750.00   755.00   760.00   765.00   770.00
 RHO, KG/CU M    2.2101-3 2.1952-3 2.1805-3 2.1659-3 2.1516-3 2.1374-3 2.1235-3 2.1097-3
 H, KJ/KG         6339.58  6412.76  6485.97  6559.20  6632.46  6705.74  6779.04  6852.36
 U, KJ/KG         3308.09  3360.65  3413.24  3465.85  3518.48  3571.14  3623.82  3676.52
 G, KJ/KG        -59114.0 -59559.5 -60005.5 -60452.0 -60899.0 -61346.5 -61794.4 -62242.9
 S, KJ/(KG)(K)    89.0525  89.1518  89.2504  89.3483  89.4457  89.5424  89.6385  89.7341

 M, (1/n)           2.016    2.016    2.016    2.016    2.016    2.016    2.016    2.016
 (dLV/dLP)t      -0.99999 -0.99999 -0.99999 -0.99999 -0.99999 -0.99999 -0.99999 -0.99999
 (dLV/dLT)p        1.0000   1.0000   1.0000   1.0000   1.0000   1.0000   1.0000   1.0000
 Cp, KJ/(KG)(K)   14.6351  14.6396  14.6440  14.6486  14.6532  14.6579  14.6627  14.6675
 GAMMAs            1.3924   1.3923   1.3921   1.3919   1.3917   1.3916   1.3914   1.3912
 SON VEL,M/SEC     2054.5   2061.4   2068.2   2075.0   2081.8   2088.5   2095.3   2102.0

 TRANSPORT PROPERTIES (GASES ONLY)
   CONDUCTIVITY IN UNITS OF MILLIWATTS/(CM)(K)

 VISC,MILLIPOISE  0.16554  0.16632  0.16711  0.16789  0.16867  0.16945  0.17023  0.17101

  WITH EQUILIBRIUM REACTIONS

 Cp, KJ/(KG)(K)   14.6351  14.6396  14.6440  14.6486  14.6532  14.6579  14.6627  14.6675
 CONDUCTIVITY      3.5118   3.5294   3.5469   3.5645   3.5821   3.5996   3.6172   3.6347
 PRANDTL NUMBER    0.6899   0.6899   0.6899   0.6900   0.6900   0.6900   0.6901   0.6901

  WITH FROZEN REACTIONS

 Cp, KJ/(KG)(K)   14.6351  14.6396  14.6440  14.6486  14.6532  14.6579  14.6627  14.6675
 CONDUCTIVITY      3.5118   3.5294   3.5469   3.5645   3.5821   3.5996   3.6172   3.6347
 PRANDTL NUMBER    0.6899   0.6899   0.6899   0.6900   0.6900   0.6900   0.6901   0.6901

 MOLE FRACTIONS

 *H2              1.00000  1.00000  1.00000  1.00000  1.00000  1.00000  1.00000  1.00000

  * THERMODYNAMIC PROPERTIES FITTED TO 20000.K

 NOTE. WEIGHT FRACTION OF FUEL IN TOTAL FUELS AND OF OXIDANT IN TOTAL OXIDANTS









               THERMODYNAMIC EQUILIBRIUM PROPERTIES AT ASSIGNED

                           TEMPERATURE AND PRESSURE

 CASE =                

             REACTANT                    WT FRACTION      ENERGY      TEMP
                                          (SEE NOTE)     KJ/KG-MOL      K  
             H2                           1.0000000         0.000      0.000

 O/F=    0.00000  %FUEL=100.000000  R,EQ.RATIO= 0.000000  PHI,EQ.RATIO= 0.000000

 THERMODYNAMIC PROPERTIES

 P, BAR           0.06700  0.06700  0.06700  0.06700  0.06700  0.07400  0.07400  0.07400
 T, K              775.00   780.00   785.00   790.00   795.00   725.00   730.00   735.00
 RHO, KG/CU M    2.0961-3 2.0826-3 2.0694-3 2.0563-3 2.0433-3 2.4747-3 2.4578-3 2.4410-3
 H, KJ/KG         6925.71  6999.09  7072.49  7145.91  7219.36  6193.28  6266.42  6339.58
 U, KJ/KG         3729.25  3782.00  3834.78  3887.58  3940.41  3203.03  3255.55  3308.09
 G, KJ/KG        -62691.8 -63141.2 -63591.0 -64041.3 -64492.1 -57927.5 -58369.8 -58812.8
 S, KJ/(KG)(K)    89.8290  89.9234  90.0172  90.1104  90.2031  88.4424  88.5428  88.6427

 M, (1/n)           2.016    2.016    2.016    2.016    2.016    2.016    2.016    2.016
 (dLV/dLP)t      -0.99999 -0.99999 -0.99999 -0.99999 -0.99999 -0.99999 -0.99999 -0.99999
 (dLV/dLT)p        1.0000   1.0000   1.0000   1.0000   1.0000   1.0000   1.0000   1.0000
 Cp, KJ/(KG)(K)   14.6724  14.6774  14.6824  14.6875  14.6927  14.6265  14.6308  14.6351
 GAMMAs            1.3910   1.3909   1.3907   1.3905   1.3903   1.3927   1.3926   1.3924
 SON VEL,M/SEC     2108.6   2115.3   2121.9   2128.5   2135.1   2040.8   2047.7   2054.5

 TRANSPORT PROPERTIES (GASES ONLY)
   CONDUCTIVITY IN UNITS OF MILLIWATTS/(CM)(K)

 VISC,MILLIPOISE  0.17179  0.17256  0.17334  0.17411  0.17488  0.16396  0.16475  0.16554

  WITH EQUILIBRIUM REACTIONS

 Cp, KJ/(KG)(K)   14.6724  14.6774  14.6824  14.6875  14.6927  14.6265  14.6308  14.6351
 CONDUCTIVITY      3.6523   3.6698   3.6874   3.7049   3.7224   3.4766   3.4942   3.5118
 PRANDTL NUMBER    0.6901   0.6902   0.6902   0.6902   0.6903   0.6898   0.6898   0.6899

  WITH FROZEN REACTIONS

 Cp, KJ/(KG)(K)   14.6724  14.6774  14.6824  14.6875  14.6927  14.6265  14.6308  14.6351
 CONDUCTIVITY      3.6523   3.6698   3.6874   3.7049   3.7224   3.4766   3.4942   3.5118
 PRANDTL NUMBER    0.6901   0.6902   0.6902   0.6902   0.6903   0.6898   0.6898   0.6899

 MOLE FRACTIONS

 *H2              1.00000  1.00000  1.00000  1.00000  1.00000  1.00000  1.00000  1.00000

  * THERMODYNAMIC PROPERTIES FITTED TO 20000.K

 NOTE. WEIGHT FRACTION OF FUEL IN TOTAL FUELS AND OF OXIDANT IN TOTAL OXIDANTS









               THERMODYNAMIC EQUILIBRIUM PROPERTIES AT ASSIGNED

                           TEMPERATURE AND PRESSURE

 CASE =                

             REACTANT                    WT FRACTION      ENERGY      TEMP
                                          (SEE NOTE)     KJ/KG-MOL      K  
             H2                           1.0000000         0.000      0.000

 O/F=    0.00000  %FUEL=100.000000  R,EQ.RATIO= 0.000000  PHI,EQ.RATIO= 0.000000

 THERMODYNAMIC PROPERTIES

 P, BAR           0.07400  0.07400  0.07400  0.07400  0.07400  0.07400  0.07400  0.07400
 T, K              740.00   745.00   750.00   755.00   760.00   765.00   770.00   775.00
 RHO, KG/CU M    2.4246-3 2.4083-3 2.3922-3 2.3764-3 2.3607-3 2.3453-3 2.3301-3 2.3151-3
 H, KJ/KG         6412.76  6485.97  6559.20  6632.46  6705.74  6779.04  6852.36  6925.71
 U, KJ/KG         3360.65  3413.24  3465.85  3518.48  3571.14  3623.82  3676.52  3729.25
 G, KJ/KG        -59256.2 -59700.2 -60144.6 -60589.6 -61035.0 -61480.9 -61927.3 -62374.1
 S, KJ/(KG)(K)    88.7419  88.8405  88.9385  89.0358  89.1325  89.2287  89.3242  89.4192

 M, (1/n)           2.016    2.016    2.016    2.016    2.016    2.016    2.016    2.016
 (dLV/dLP)t      -0.99999 -0.99999 -0.99999 -0.99999 -0.99999 -0.99999 -0.99999 -0.99999
 (dLV/dLT)p        1.0000   1.0000   1.0000   1.0000   1.0000   1.0000   1.0000   1.0000
 Cp, KJ/(KG)(K)   14.6396  14.6440  14.6486  14.6532  14.6579  14.6627  14.6675  14.6724
 GAMMAs            1.3923   1.3921   1.3919   1.3917   1.3916   1.3914   1.3912   1.3910
 SON VEL,M/SEC     2061.4   2068.2   2075.0   2081.8   2088.5   2095.3   2102.0   2108.6

 TRANSPORT PROPERTIES (GASES ONLY)
   CONDUCTIVITY IN UNITS OF MILLIWATTS/(CM)(K)

 VISC,MILLIPOISE  0.16632  0.16711  0.16789  0.16867  0.16945  0.17023  0.17101  0.17179

  WITH EQUILIBRIUM REACTIONS

 Cp, KJ/(KG)(K)   14.6396  14.6440  14.6486  14.6532  14.6579  14.6627  14.6675  14.6724
 CONDUCTIVITY      3.5294   3.5469   3.5645   3.5821   3.5996   3.6172   3.6347   3.6523
 PRANDTL NUMBER    0.6899   0.6899   0.6900   0.6900   0.6900   0.6901   0.6901   0.6901

  WITH FROZEN REACTIONS

 Cp, KJ/(KG)(K)   14.6396  14.6440  14.6486  14.6532  14.6579  14.6627  14.6675  14.6724
 CONDUCTIVITY      3.5294   3.5469   3.5645   3.5821   3.5996   3.6172   3.6347   3.6523
 PRANDTL NUMBER    0.6899   0.6899   0.6900   0.6900   0.6900   0.6901   0.6901   0.6901

 MOLE FRACTIONS

 *H2              1.00000  1.00000  1.00000  1.00000  1.00000  1.00000  1.00000  1.00000

  * THERMODYNAMIC PROPERTIES FITTED TO 20000.K

 NOTE. WEIGHT FRACTION OF FUEL IN TOTAL FUELS AND OF OXIDANT IN TOTAL OXIDANTS









               THERMODYNAMIC EQUILIBRIUM PROPERTIES AT ASSIGNED

                           TEMPERATURE AND PRESSURE

 CASE =                

             REACTANT                    WT FRACTION      ENERGY      TEMP
                                          (SEE NOTE)     KJ/KG-MOL      K  
             H2                           1.0000000         0.000      0.000

 O/F=    0.00000  %FUEL=100.000000  R,EQ.RATIO= 0.000000  PHI,EQ.RATIO= 0.000000

 THERMODYNAMIC PROPERTIES

 P, BAR           0.07400  0.07400  0.07400  0.07400  0.08250  0.08250  0.08250  0.08250
 T, K              780.00   785.00   790.00   795.00   725.00   730.00   735.00   740.00
 RHO, KG/CU M    2.3002-3 2.2856-3 2.2711-3 2.2568-3 2.7590-3 2.7401-3 2.7214-3 2.7030-3
 H, KJ/KG         6999.09  7072.49  7145.91  7219.36  6193.28  6266.42  6339.58  6412.76
 U, KJ/KG         3782.00  3834.78  3887.58  3940.41  3203.03  3255.55  3308.09  3360.65
 G, KJ/KG        -62821.5 -63269.3 -63717.5 -64166.3 -57602.3 -58042.5 -58483.2 -58924.4
 S, KJ/(KG)(K)    89.5135  89.6073  89.7006  89.7933  87.9939  88.0944  88.1942  88.2934

 M, (1/n)           2.016    2.016    2.016    2.016    2.016    2.016    2.016    2.016
 (dLV/dLP)t      -0.99999 -0.99999 -0.99999 -0.99999 -0.99999 -0.99999 -0.99999 -0.99999
 (dLV/dLT)p        1.0000   1.0000   1.0000   1.0000   1.0000   1.0000   1.0000   1.0000
 Cp, KJ/(KG)(K)   14.6774  14.6824  14.6875  14.6927  14.6265  14.6308  14.6351  14.6396
 GAMMAs            1.3909   1.3907   1.3905   1.3903   1.3927   1.3926   1.3924   1.3923
 SON VEL,M/SEC     2115.3   2121.9   2128.5   2135.1   2040.8   2047.7   2054.5   2061.4

 TRANSPORT PROPERTIES (GASES ONLY)
   CONDUCTIVITY IN UNITS OF MILLIWATTS/(CM)(K)

 VISC,MILLIPOISE  0.17256  0.17334  0.17411  0.17488  0.16396  0.16475  0.16554  0.16632

  WITH EQUILIBRIUM REACTIONS

 Cp, KJ/(KG)(K)   14.6774  14.6824  14.6875  14.6927  14.6265  14.6308  14.6351  14.6396
 CONDUCTIVITY      3.6698   3.6874   3.7049   3.7224   3.4766   3.4942   3.5118   3.5294
 PRANDTL NUMBER    0.6902   0.6902   0.6902   0.6903   0.6898   0.6898   0.6899   0.6899

  WITH FROZEN REACTIONS

 Cp, KJ/(KG)(K)   14.6774  14.6824  14.6875  14.6927  14.6265  14.6308  14.6351  14.6396
 CONDUCTIVITY      3.6698   3.6874   3.7049   3.7224   3.4766   3.4942   3.5118   3.5294
 PRANDTL NUMBER    0.6902   0.6902   0.6902   0.6903   0.6898   0.6898   0.6899   0.6899

 MOLE FRACTIONS

 *H2              1.00000  1.00000  1.00000  1.00000  1.00000  1.00000  1.00000  1.00000

  * THERMODYNAMIC PROPERTIES FITTED TO 20000.K

 NOTE. WEIGHT FRACTION OF FUEL IN TOTAL FUELS AND OF OXIDANT IN TOTAL OXIDANTS









               THERMODYNAMIC EQUILIBRIUM PROPERTIES AT ASSIGNED

                           TEMPERATURE AND PRESSURE

 CASE =                

             REACTANT                    WT FRACTION      ENERGY      TEMP
                                          (SEE NOTE)     KJ/KG-MOL      K  
             H2                           1.0000000         0.000      0.000

 O/F=    0.00000  %FUEL=100.000000  R,EQ.RATIO= 0.000000  PHI,EQ.RATIO= 0.000000

 THERMODYNAMIC PROPERTIES

 P, BAR           0.08250  0.08250  0.08250  0.08250  0.08250  0.08250  0.08250  0.08250
 T, K              745.00   750.00   755.00   760.00   765.00   770.00   775.00   780.00
 RHO, KG/CU M    2.6849-3 2.6670-3 2.6493-3 2.6319-3 2.6147-3 2.5977-3 2.5810-3 2.5644-3
 H, KJ/KG         6485.97  6559.20  6632.46  6705.74  6779.04  6852.36  6925.71  6999.09
 U, KJ/KG         3413.24  3465.85  3518.48  3571.14  3623.82  3676.52  3729.25  3782.00
 G, KJ/KG        -59366.1 -59808.3 -60251.0 -60694.2 -61137.8 -61582.0 -62026.6 -62471.7
 S, KJ/(KG)(K)    88.3920  88.4900  88.5873  88.6841  88.7802  88.8757  88.9707  89.0651

 M, (1/n)           2.016    2.016    2.016    2.016    2.016    2.016    2.016    2.016
 (dLV/dLP)t      -0.99999 -0.99999 -0.99999 -0.99999 -0.99999 -0.99999 -0.99999 -0.99999
 (dLV/dLT)p        1.0000   1.0000   1.0000   1.0000   1.0000   1.0000   1.0000   1.0000
 Cp, KJ/(KG)(K)   14.6440  14.6486  14.6532  14.6579  14.6627  14.6675  14.6724  14.6774
 GAMMAs            1.3921   1.3919   1.3917   1.3916   1.3914   1.3912   1.3910   1.3909
 SON VEL,M/SEC     2068.2   2075.0   2081.8   2088.5   2095.3   2102.0   2108.6   2115.3

 TRANSPORT PROPERTIES (GASES ONLY)
   CONDUCTIVITY IN UNITS OF MILLIWATTS/(CM)(K)

 VISC,MILLIPOISE  0.16711  0.16789  0.16867  0.16945  0.17023  0.17101  0.17179  0.17256

  WITH EQUILIBRIUM REACTIONS

 Cp, KJ/(KG)(K)   14.6440  14.6486  14.6532  14.6579  14.6627  14.6675  14.6724  14.6774
 CONDUCTIVITY      3.5469   3.5645   3.5821   3.5996   3.6172   3.6347   3.6523   3.6698
 PRANDTL NUMBER    0.6899   0.6900   0.6900   0.6900   0.6901   0.6901   0.6901   0.6902

  WITH FROZEN REACTIONS

 Cp, KJ/(KG)(K)   14.6440  14.6486  14.6532  14.6579  14.6627  14.6675  14.6724  14.6774
 CONDUCTIVITY      3.5469   3.5645   3.5821   3.5996   3.6172   3.6347   3.6523   3.6698
 PRANDTL NUMBER    0.6899   0.6900   0.6900   0.6900   0.6901   0.6901   0.6901   0.6902

 MOLE FRACTIONS

 *H2              1.00000  1.00000  1.00000  1.00000  1.00000  1.00000  1.00000  1.00000

  * THERMODYNAMIC PROPERTIES FITTED TO 20000.K

 NOTE. WEIGHT FRACTION OF FUEL IN TOTAL FUELS AND OF OXIDANT IN TOTAL OXIDANTS









               THERMODYNAMIC EQUILIBRIUM PROPERTIES AT ASSIGNED

                           TEMPERATURE AND PRESSURE

 CASE =                

             REACTANT                    WT FRACTION      ENERGY      TEMP
                                          (SEE NOTE)     KJ/KG-MOL      K  
             H2                           1.0000000         0.000      0.000

 O/F=    0.00000  %FUEL=100.000000  R,EQ.RATIO= 0.000000  PHI,EQ.RATIO= 0.000000

 THERMODYNAMIC PROPERTIES

 P, BAR           0.08250  0.08250  0.08250  0.09100  0.09100  0.09100  0.09100  0.09100
 T, K              785.00   790.00   795.00   725.00   730.00   735.00   740.00   745.00
 RHO, KG/CU M    2.5481-3 2.5320-3 2.5160-3 3.0432-3 3.0224-3 3.0018-3 2.9815-3 2.9615-3
 H, KJ/KG         7072.49  7145.91  7219.36  6193.28  6266.42  6339.58  6412.76  6485.97
 U, KJ/KG         3834.78  3887.58  3940.41  3203.03  3255.55  3308.09  3360.65  3413.24
 G, KJ/KG        -62917.2 -63363.2 -63809.7 -57309.1 -57747.2 -58185.9 -58625.1 -59064.8
 S, KJ/(KG)(K)    89.1589  89.2521  89.3448  87.5895  87.6899  87.7897  87.8890  87.9876

 M, (1/n)           2.016    2.016    2.016    2.016    2.016    2.016    2.016    2.016
 (dLV/dLP)t      -0.99999 -0.99999 -0.99999 -0.99999 -0.99999 -0.99999 -0.99999 -0.99999
 (dLV/dLT)p        1.0000   1.0000   1.0000   1.0000   1.0000   1.0000   1.0000   1.0000
 Cp, KJ/(KG)(K)   14.6824  14.6875  14.6927  14.6265  14.6308  14.6351  14.6396  14.6440
 GAMMAs            1.3907   1.3905   1.3903   1.3927   1.3926   1.3924   1.3923   1.3921
 SON VEL,M/SEC     2121.9   2128.5   2135.1   2040.8   2047.7   2054.5   2061.4   2068.2

 TRANSPORT PROPERTIES (GASES ONLY)
   CONDUCTIVITY IN UNITS OF MILLIWATTS/(CM)(K)

 VISC,MILLIPOISE  0.17334  0.17411  0.17488  0.16396  0.16475  0.16554  0.16632  0.16711

  WITH EQUILIBRIUM REACTIONS

 Cp, KJ/(KG)(K)   14.6824  14.6875  14.6927  14.6265  14.6308  14.6351  14.6396  14.6440
 CONDUCTIVITY      3.6874   3.7049   3.7224   3.4766   3.4942   3.5118   3.5294   3.5469
 PRANDTL NUMBER    0.6902   0.6902   0.6903   0.6898   0.6898   0.6899   0.6899   0.6899

  WITH FROZEN REACTIONS

 Cp, KJ/(KG)(K)   14.6824  14.6875  14.6927  14.6265  14.6308  14.6351  14.6396  14.6440
 CONDUCTIVITY      3.6874   3.7049   3.7224   3.4766   3.4942   3.5118   3.5294   3.5469
 PRANDTL NUMBER    0.6902   0.6902   0.6903   0.6898   0.6898   0.6899   0.6899   0.6899

 MOLE FRACTIONS

 *H2              1.00000  1.00000  1.00000  1.00000  1.00000  1.00000  1.00000  1.00000

  * THERMODYNAMIC PROPERTIES FITTED TO 20000.K

 NOTE. WEIGHT FRACTION OF FUEL IN TOTAL FUELS AND OF OXIDANT IN TOTAL OXIDANTS









               THERMODYNAMIC EQUILIBRIUM PROPERTIES AT ASSIGNED

                           TEMPERATURE AND PRESSURE

 CASE =                

             REACTANT                    WT FRACTION      ENERGY      TEMP
                                          (SEE NOTE)     KJ/KG-MOL      K  
             H2                           1.0000000         0.000      0.000

 O/F=    0.00000  %FUEL=100.000000  R,EQ.RATIO= 0.000000  PHI,EQ.RATIO= 0.000000

 THERMODYNAMIC PROPERTIES

 P, BAR           0.09100  0.09100  0.09100  0.09100  0.09100  0.09100  0.09100  0.09100
 T, K              750.00   755.00   760.00   765.00   770.00   775.00   780.00   785.00
 RHO, KG/CU M    2.9418-3 2.9223-3 2.9031-3 2.8841-3 2.8654-3 2.8469-3 2.8286-3 2.8106-3
 H, KJ/KG         6559.20  6632.46  6705.74  6779.04  6852.36  6925.71  6999.09  7072.49
 U, KJ/KG         3465.85  3518.48  3571.14  3623.82  3676.52  3729.25  3782.00  3834.78
 G, KJ/KG        -59504.9 -59945.6 -60386.8 -60828.4 -61270.5 -61713.1 -62156.2 -62599.7
 S, KJ/(KG)(K)    88.0855  88.1829  88.2796  88.3757  88.4713  88.5662  88.6606  88.7544

 M, (1/n)           2.016    2.016    2.016    2.016    2.016    2.016    2.016    2.016
 (dLV/dLP)t      -0.99999 -0.99999 -0.99999 -0.99999 -0.99999 -0.99999 -0.99999 -0.99999
 (dLV/dLT)p        1.0000   1.0000   1.0000   1.0000   1.0000   1.0000   1.0000   1.0000
 Cp, KJ/(KG)(K)   14.6486  14.6532  14.6579  14.6627  14.6675  14.6724  14.6774  14.6824
 GAMMAs            1.3919   1.3917   1.3916   1.3914   1.3912   1.3910   1.3909   1.3907
 SON VEL,M/SEC     2075.0   2081.8   2088.5   2095.3   2102.0   2108.6   2115.3   2121.9

 TRANSPORT PROPERTIES (GASES ONLY)
   CONDUCTIVITY IN UNITS OF MILLIWATTS/(CM)(K)

 VISC,MILLIPOISE  0.16789  0.16867  0.16945  0.17023  0.17101  0.17179  0.17256  0.17334

  WITH EQUILIBRIUM REACTIONS

 Cp, KJ/(KG)(K)   14.6486  14.6532  14.6579  14.6627  14.6675  14.6724  14.6774  14.6824
 CONDUCTIVITY      3.5645   3.5821   3.5996   3.6172   3.6347   3.6523   3.6698   3.6874
 PRANDTL NUMBER    0.6900   0.6900   0.6900   0.6901   0.6901   0.6901   0.6902   0.6902

  WITH FROZEN REACTIONS

 Cp, KJ/(KG)(K)   14.6486  14.6532  14.6579  14.6627  14.6675  14.6724  14.6774  14.6824
 CONDUCTIVITY      3.5645   3.5821   3.5996   3.6172   3.6347   3.6523   3.6698   3.6874
 PRANDTL NUMBER    0.6900   0.6900   0.6900   0.6901   0.6901   0.6901   0.6902   0.6902

 MOLE FRACTIONS

 *H2              1.00000  1.00000  1.00000  1.00000  1.00000  1.00000  1.00000  1.00000

  * THERMODYNAMIC PROPERTIES FITTED TO 20000.K

 NOTE. WEIGHT FRACTION OF FUEL IN TOTAL FUELS AND OF OXIDANT IN TOTAL OXIDANTS









               THERMODYNAMIC EQUILIBRIUM PROPERTIES AT ASSIGNED

                           TEMPERATURE AND PRESSURE

 CASE =                

             REACTANT                    WT FRACTION      ENERGY      TEMP
                                          (SEE NOTE)     KJ/KG-MOL      K  
             H2                           1.0000000         0.000      0.000

 O/F=    0.00000  %FUEL=100.000000  R,EQ.RATIO= 0.000000  PHI,EQ.RATIO= 0.000000

 THERMODYNAMIC PROPERTIES

 P, BAR           0.09100  0.09100  0.10000  0.10000  0.10000  0.10000  0.10000  0.10000
 T, K              790.00   795.00   725.00   730.00   735.00   740.00   745.00   750.00
 RHO, KG/CU M    2.7928-3 2.7753-3 3.3442-3 3.3213-3 3.2987-3 3.2764-3 3.2544-3 3.2327-3
 H, KJ/KG         7145.91  7219.36  6193.28  6266.42  6339.58  6412.76  6485.97  6559.20
 U, KJ/KG         3887.58  3940.41  3203.03  3255.55  3308.09  3360.65  3413.24  3465.85
 G, KJ/KG        -63043.7 -63488.2 -57027.1 -57463.3 -57900.0 -58337.2 -58775.0 -59213.2
 S, KJ/(KG)(K)    88.8477  88.9403  87.2005  87.3009  87.4008  87.5000  87.5986  87.6965

 M, (1/n)           2.016    2.016    2.016    2.016    2.016    2.016    2.016    2.016
 (dLV/dLP)t      -0.99999 -0.99999 -0.99999 -0.99999 -0.99999 -0.99999 -0.99999 -0.99999
 (dLV/dLT)p        1.0000   1.0000   1.0000   1.0000   1.0000   1.0000   1.0000   1.0000
 Cp, KJ/(KG)(K)   14.6875  14.6927  14.6265  14.6308  14.6351  14.6396  14.6440  14.6486
 GAMMAs            1.3905   1.3903   1.3927   1.3926   1.3924   1.3923   1.3921   1.3919
 SON VEL,M/SEC     2128.5   2135.1   2040.8   2047.7   2054.5   2061.4   2068.2   2075.0

 TRANSPORT PROPERTIES (GASES ONLY)
   CONDUCTIVITY IN UNITS OF MILLIWATTS/(CM)(K)

 VISC,MILLIPOISE  0.17411  0.17488  0.16396  0.16475  0.16554  0.16632  0.16711  0.16789

  WITH EQUILIBRIUM REACTIONS

 Cp, KJ/(KG)(K)   14.6875  14.6927  14.6265  14.6308  14.6351  14.6396  14.6440  14.6486
 CONDUCTIVITY      3.7049   3.7224   3.4766   3.4942   3.5118   3.5294   3.5469   3.5645
 PRANDTL NUMBER    0.6902   0.6903   0.6898   0.6898   0.6899   0.6899   0.6899   0.6900

  WITH FROZEN REACTIONS

 Cp, KJ/(KG)(K)   14.6875  14.6927  14.6265  14.6308  14.6351  14.6396  14.6440  14.6486
 CONDUCTIVITY      3.7049   3.7224   3.4766   3.4942   3.5118   3.5294   3.5469   3.5645
 PRANDTL NUMBER    0.6902   0.6903   0.6898   0.6898   0.6899   0.6899   0.6899   0.6900

 MOLE FRACTIONS

 *H2              1.00000  1.00000  1.00000  1.00000  1.00000  1.00000  1.00000  1.00000

  * THERMODYNAMIC PROPERTIES FITTED TO 20000.K

 NOTE. WEIGHT FRACTION OF FUEL IN TOTAL FUELS AND OF OXIDANT IN TOTAL OXIDANTS









               THERMODYNAMIC EQUILIBRIUM PROPERTIES AT ASSIGNED

                           TEMPERATURE AND PRESSURE

 CASE =                

             REACTANT                    WT FRACTION      ENERGY      TEMP
                                          (SEE NOTE)     KJ/KG-MOL      K  
             H2                           1.0000000         0.000      0.000

 O/F=    0.00000  %FUEL=100.000000  R,EQ.RATIO= 0.000000  PHI,EQ.RATIO= 0.000000

 THERMODYNAMIC PROPERTIES

 P, BAR           0.10000  0.10000  0.10000  0.10000  0.10000  0.10000  0.10000  0.10000
 T, K              755.00   760.00   765.00   770.00   775.00   780.00   785.00   790.00
 RHO, KG/CU M    3.2113-3 3.1902-3 3.1693-3 3.1488-3 3.1285-3 3.1084-3 3.0886-3 3.0691-3
 H, KJ/KG         6632.46  6705.74  6779.04  6852.36  6925.71  6999.09  7072.49  7145.91
 U, KJ/KG         3518.48  3571.14  3623.82  3676.52  3729.25  3782.00  3834.78  3887.58
 G, KJ/KG        -59651.9 -60091.1 -60530.8 -60971.0 -61411.7 -61852.8 -62294.4 -62736.4
 S, KJ/(KG)(K)    87.7939  87.8906  87.9868  88.0823  88.1773  88.2716  88.3654  88.4587

 M, (1/n)           2.016    2.016    2.016    2.016    2.016    2.016    2.016    2.016
 (dLV/dLP)t      -0.99999 -0.99999 -0.99999 -0.99999 -0.99999 -0.99999 -0.99999 -0.99999
 (dLV/dLT)p        1.0000   1.0000   1.0000   1.0000   1.0000   1.0000   1.0000   1.0000
 Cp, KJ/(KG)(K)   14.6532  14.6579  14.6627  14.6675  14.6724  14.6774  14.6824  14.6875
 GAMMAs            1.3917   1.3916   1.3914   1.3912   1.3910   1.3909   1.3907   1.3905
 SON VEL,M/SEC     2081.8   2088.5   2095.3   2102.0   2108.6   2115.3   2121.9   2128.5

 TRANSPORT PROPERTIES (GASES ONLY)
   CONDUCTIVITY IN UNITS OF MILLIWATTS/(CM)(K)

 VISC,MILLIPOISE  0.16867  0.16945  0.17023  0.17101  0.17179  0.17256  0.17334  0.17411

  WITH EQUILIBRIUM REACTIONS

 Cp, KJ/(KG)(K)   14.6532  14.6579  14.6627  14.6675  14.6724  14.6774  14.6824  14.6875
 CONDUCTIVITY      3.5821   3.5996   3.6172   3.6347   3.6523   3.6698   3.6874   3.7049
 PRANDTL NUMBER    0.6900   0.6900   0.6901   0.6901   0.6901   0.6902   0.6902   0.6902

  WITH FROZEN REACTIONS

 Cp, KJ/(KG)(K)   14.6532  14.6579  14.6627  14.6675  14.6724  14.6774  14.6824  14.6875
 CONDUCTIVITY      3.5821   3.5996   3.6172   3.6347   3.6523   3.6698   3.6874   3.7049
 PRANDTL NUMBER    0.6900   0.6900   0.6901   0.6901   0.6901   0.6902   0.6902   0.6902

 MOLE FRACTIONS

 *H2              1.00000  1.00000  1.00000  1.00000  1.00000  1.00000  1.00000  1.00000

  * THERMODYNAMIC PROPERTIES FITTED TO 20000.K

 NOTE. WEIGHT FRACTION OF FUEL IN TOTAL FUELS AND OF OXIDANT IN TOTAL OXIDANTS









               THERMODYNAMIC EQUILIBRIUM PROPERTIES AT ASSIGNED

                           TEMPERATURE AND PRESSURE

 CASE =                

             REACTANT                    WT FRACTION      ENERGY      TEMP
                                          (SEE NOTE)     KJ/KG-MOL      K  
             H2                           1.0000000         0.000      0.000

 O/F=    0.00000  %FUEL=100.000000  R,EQ.RATIO= 0.000000  PHI,EQ.RATIO= 0.000000

 THERMODYNAMIC PROPERTIES

 P, BAR           0.10000
 T, K              795.00
 RHO, KG/CU M    3.0497-3
 H, KJ/KG         7219.36
 U, KJ/KG         3940.41
 G, KJ/KG        -63179.0
 S, KJ/(KG)(K)    88.5513

 M, (1/n)           2.016
 (dLV/dLP)t      -0.99999
 (dLV/dLT)p        1.0000
 Cp, KJ/(KG)(K)   14.6927
 GAMMAs            1.3903
 SON VEL,M/SEC     2135.1

 TRANSPORT PROPERTIES (GASES ONLY)
   CONDUCTIVITY IN UNITS OF MILLIWATTS/(CM)(K)

 VISC,MILLIPOISE  0.17488

  WITH EQUILIBRIUM REACTIONS

 Cp, KJ/(KG)(K)   14.6927
 CONDUCTIVITY      3.7224
 PRANDTL NUMBER    0.6903

  WITH FROZEN REACTIONS

 Cp, KJ/(KG)(K)   14.6927
 CONDUCTIVITY      3.7224
 PRANDTL NUMBER    0.6903

 MOLE FRACTIONS

 *H2              1.00000

  * THERMODYNAMIC PROPERTIES FITTED TO 20000.K

 NOTE. WEIGHT FRACTION OF FUEL IN TOTAL FUELS AND OF OXIDANT IN TOTAL OXIDANTS



  
