
 *******************************************************************************

         NASA-GLENN CHEMICAL EQUILIBRIUM PROGRAM CEA2, MAY 21, 2004
                   BY  BONNIE MCBRIDE AND SANFORD GORDON
      REFS: NASA RP-1311, PART I, 1994 AND NASA RP-1311, PART II, 1996

 *******************************************************************************



  prob tp ions
  p,bar= 0.0225,0.025,0.028,0.031,0.035,0.039,0.044,0.049,0.054,0.06,0.067,0.074,
 0.0825,0.091,0.1
  t,k= 300,305,310,315,320,325,330,335,340,345,350,355,360,365,370
  
  
  reac
  fuel H2                wt%=100.0000
  oxid H2                wt%=100.0000
  
  output short
  
  output massf
  
  output siunits
  
  output transport
  
 end





               THERMODYNAMIC EQUILIBRIUM PROPERTIES AT ASSIGNED

                           TEMPERATURE AND PRESSURE

 CASE =                

             REACTANT                    WT FRACTION      ENERGY      TEMP
                                          (SEE NOTE)     KJ/KG-MOL      K  
 FUEL        H2                           1.0000000         0.000      0.000
 OXIDANT     H2                           1.0000000         0.000      0.000

 O/F=    1.00000  %FUEL= 50.000000  R,EQ.RATIO= 0.000000  PHI,EQ.RATIO=-1.000000

 THERMODYNAMIC PROPERTIES

 P, BAR           0.02250  0.02250  0.02250  0.02250  0.02250  0.02250  0.02250  0.02250
 T, K              300.00   305.00   310.00   315.00   320.00   325.00   330.00   335.00
 RHO, KG/CU M    1.8184-3 1.7886-3 1.7598-3 1.7318-3 1.7048-3 1.6785-3 1.6531-3 1.6284-3
 H, KJ/KG          26.469   98.065   169.74   241.49   313.30   385.18   457.11   529.10
 U, KJ/KG        -1210.88 -1159.90 -1108.85 -1057.73 -1006.53  -955.28  -903.97  -852.60
 G, KJ/KG        -24142.7 -24546.1 -24950.6 -25356.4 -25763.2 -26171.2 -26580.4 -26990.6
 S, KJ/(KG)(K)    80.5640  80.8004  81.0335  81.2630  81.4892  81.7121  81.9317  82.1482

 M, (1/n)           2.016    2.016    2.016    2.016    2.016    2.016    2.016    2.016
 (dLV/dLP)t      -1.00000 -0.99999 -0.99999 -0.99999 -0.99999 -0.99999 -0.99999 -0.99999
 (dLV/dLT)p        1.0000   1.0000   1.0000   1.0000   1.0000   1.0000   1.0000   1.0000
 Cp, KJ/(KG)(K)   14.3110  14.3272  14.3423  14.3563  14.3693  14.3813  14.3923  14.4026
 GAMMAs            1.4049   1.4043   1.4037   1.4031   1.4026   1.4021   1.4017   1.4013
 SON VEL,M/SEC     1318.5   1329.1   1339.7   1350.2   1360.6   1370.9   1381.2   1391.5

 TRANSPORT PROPERTIES (GASES ONLY)
   CONDUCTIVITY IN UNITS OF MILLIWATTS/(CM)(K)

 VISC,MILLIPOISE  0.00000  0.00000  0.00000  0.00000  0.00000  0.00000  0.00000  0.00001

  WITH EQUILIBRIUM REACTIONS

 Cp, KJ/(KG)(K)   14.3110  14.3272  14.3423  14.3563  14.3693  14.3813  14.3923  14.4026
 CONDUCTIVITY      0.0000   0.0000   0.0000   0.0000   0.0000   0.0000   0.0000   0.0000
 PRANDTL NUMBER    2.3304   2.3307   2.3311   2.3315   2.3320   2.3326   2.3331   2.3336

  WITH FROZEN REACTIONS

 Cp, KJ/(KG)(K)   14.3110  14.3272  14.3423  14.3563  14.3693  14.3813  14.3923  14.4026
 CONDUCTIVITY      0.0000   0.0000   0.0000   0.0000   0.0000   0.0000   0.0000   0.0000
 PRANDTL NUMBER    2.3304   2.3307   2.3311   2.3315   2.3320   2.3326   2.3331   2.3336

 MASS FRACTIONS

 *H2              1.00000  1.00000  1.00000  1.00000  1.00000  1.00000  1.00000  1.00000

  * THERMODYNAMIC PROPERTIES FITTED TO 20000.K

 NOTE. WEIGHT FRACTION OF FUEL IN TOTAL FUELS AND OF OXIDANT IN TOTAL OXIDANTS









               THERMODYNAMIC EQUILIBRIUM PROPERTIES AT ASSIGNED

                           TEMPERATURE AND PRESSURE

 CASE =                

             REACTANT                    WT FRACTION      ENERGY      TEMP
                                          (SEE NOTE)     KJ/KG-MOL      K  
 FUEL        H2                           1.0000000         0.000      0.000
 OXIDANT     H2                           1.0000000         0.000      0.000

 O/F=    1.00000  %FUEL= 50.000000  R,EQ.RATIO= 0.000000  PHI,EQ.RATIO=-1.000000

 THERMODYNAMIC PROPERTIES

 P, BAR           0.02250  0.02250  0.02250  0.02250  0.02250  0.02250  0.02250  0.02500
 T, K              340.00   345.00   350.00   355.00   360.00   365.00   370.00   300.00
 RHO, KG/CU M    1.6045-3 1.5812-3 1.5586-3 1.5367-3 1.5153-3 1.4946-3 1.4744-3 2.0205-3
 H, KJ/KG          601.14   673.22   745.34   817.50   889.70   961.93  1034.19   26.469
 U, KJ/KG         -801.19  -749.73  -698.23  -646.69  -595.11  -543.51  -491.87 -1210.88
 G, KJ/KG        -27401.8 -27814.2 -28227.6 -28642.0 -29057.4 -29473.8 -29891.2 -24012.3
 S, KJ/(KG)(K)    82.3617  82.5721  82.7797  82.9844  83.1864  83.3856  83.5822  80.1292

 M, (1/n)           2.016    2.016    2.016    2.016    2.016    2.016    2.016    2.016
 (dLV/dLP)t      -0.99999 -0.99999 -0.99999 -0.99999 -0.99999 -0.99999 -0.99999 -0.99999
 (dLV/dLT)p        1.0000   1.0000   1.0000   1.0000   1.0000   1.0000   1.0000   1.0000
 Cp, KJ/(KG)(K)   14.4120  14.4207  14.4286  14.4360  14.4427  14.4489  14.4545  14.3109
 GAMMAs            1.4009   1.4006   1.4003   1.4000   1.3997   1.3995   1.3993   1.4049
 SON VEL,M/SEC     1401.6   1411.7   1421.8   1431.7   1441.6   1451.5   1461.3   1318.5

 TRANSPORT PROPERTIES (GASES ONLY)
   CONDUCTIVITY IN UNITS OF MILLIWATTS/(CM)(K)

 VISC,MILLIPOISE  0.00006  0.00049  0.00379  0.02311  0.06928  0.09596  0.10232  0.00000

  WITH EQUILIBRIUM REACTIONS

 Cp, KJ/(KG)(K)   14.4120  14.4207  14.4286  14.4360  14.4427  14.4489  14.4545  14.3109
 CONDUCTIVITY      0.0004   0.0030   0.0241   0.1706   0.8275   1.7552   2.1051   0.0000
 PRANDTL NUMBER    2.3333   2.3267   2.2727   1.9565   1.2093   0.7899   0.7026   2.3304

  WITH FROZEN REACTIONS

 Cp, KJ/(KG)(K)   14.4120  14.4207  14.4286  14.4360  14.4427  14.4489  14.4545  14.3109
 CONDUCTIVITY      0.0004   0.0030   0.0241   0.1706   0.8275   1.7552   2.1051   0.0000
 PRANDTL NUMBER    2.3333   2.3267   2.2727   1.9565   1.2093   0.7899   0.7026   2.3304

 MASS FRACTIONS

 *H2              1.00000  1.00000  1.00000  1.00000  1.00000  1.00000  1.00000  1.00000

  * THERMODYNAMIC PROPERTIES FITTED TO 20000.K

 NOTE. WEIGHT FRACTION OF FUEL IN TOTAL FUELS AND OF OXIDANT IN TOTAL OXIDANTS









               THERMODYNAMIC EQUILIBRIUM PROPERTIES AT ASSIGNED

                           TEMPERATURE AND PRESSURE

 CASE =                

             REACTANT                    WT FRACTION      ENERGY      TEMP
                                          (SEE NOTE)     KJ/KG-MOL      K  
 FUEL        H2                           1.0000000         0.000      0.000
 OXIDANT     H2                           1.0000000         0.000      0.000

 O/F=    1.00000  %FUEL= 50.000000  R,EQ.RATIO= 0.000000  PHI,EQ.RATIO=-1.000000

 THERMODYNAMIC PROPERTIES

 P, BAR           0.02500  0.02500  0.02500  0.02500  0.02500  0.02500  0.02500  0.02500
 T, K              305.00   310.00   315.00   320.00   325.00   330.00   335.00   340.00
 RHO, KG/CU M    1.9873-3 1.9553-3 1.9242-3 1.8942-3 1.8650-3 1.8368-3 1.8094-3 1.7828-3
 H, KJ/KG          98.065   169.74   241.49   313.30   385.18   457.11   529.10   601.14
 U, KJ/KG        -1159.90 -1108.85 -1057.73 -1006.53  -955.28  -903.97  -852.60  -801.19
 G, KJ/KG        -24413.5 -24815.9 -25219.5 -25624.2 -26030.0 -26437.0 -26845.0 -27254.1
 S, KJ/(KG)(K)    80.3658  80.5989  80.8285  81.0546  81.2775  81.4972  81.7137  81.9271

 M, (1/n)           2.016    2.016    2.016    2.016    2.016    2.016    2.016    2.016
 (dLV/dLP)t      -0.99999 -0.99999 -0.99999 -0.99999 -0.99999 -0.99999 -0.99999 -0.99999
 (dLV/dLT)p        1.0000   1.0000   1.0000   1.0000   1.0000   1.0000   1.0000   1.0000
 Cp, KJ/(KG)(K)   14.3272  14.3423  14.3563  14.3693  14.3813  14.3923  14.4026  14.4120
 GAMMAs            1.4043   1.4037   1.4031   1.4026   1.4021   1.4017   1.4013   1.4009
 SON VEL,M/SEC     1329.1   1339.7   1350.2   1360.6   1370.9   1381.2   1391.5   1401.6

 TRANSPORT PROPERTIES (GASES ONLY)
   CONDUCTIVITY IN UNITS OF MILLIWATTS/(CM)(K)

 VISC,MILLIPOISE  0.00000  0.00000  0.00000  0.00000  0.00000  0.00000  0.00002  0.00016

  WITH EQUILIBRIUM REACTIONS

 Cp, KJ/(KG)(K)   14.3272  14.3423  14.3563  14.3693  14.3813  14.3923  14.4026  14.4120
 CONDUCTIVITY      0.0000   0.0000   0.0000   0.0000   0.0000   0.0000   0.0001   0.0010
 PRANDTL NUMBER    2.3307   2.3311   2.3315   2.3320   2.3326   2.3331   2.3334   2.3316

  WITH FROZEN REACTIONS

 Cp, KJ/(KG)(K)   14.3272  14.3423  14.3563  14.3693  14.3813  14.3923  14.4026  14.4120
 CONDUCTIVITY      0.0000   0.0000   0.0000   0.0000   0.0000   0.0000   0.0001   0.0010
 PRANDTL NUMBER    2.3307   2.3311   2.3315   2.3320   2.3326   2.3331   2.3334   2.3316

 MASS FRACTIONS

 *H2              1.00000  1.00000  1.00000  1.00000  1.00000  1.00000  1.00000  1.00000

  * THERMODYNAMIC PROPERTIES FITTED TO 20000.K

 NOTE. WEIGHT FRACTION OF FUEL IN TOTAL FUELS AND OF OXIDANT IN TOTAL OXIDANTS









               THERMODYNAMIC EQUILIBRIUM PROPERTIES AT ASSIGNED

                           TEMPERATURE AND PRESSURE

 CASE =                

             REACTANT                    WT FRACTION      ENERGY      TEMP
                                          (SEE NOTE)     KJ/KG-MOL      K  
 FUEL        H2                           1.0000000         0.000      0.000
 OXIDANT     H2                           1.0000000         0.000      0.000

 O/F=    1.00000  %FUEL= 50.000000  R,EQ.RATIO= 0.000000  PHI,EQ.RATIO=-1.000000

 THERMODYNAMIC PROPERTIES

 P, BAR           0.02500  0.02500  0.02500  0.02500  0.02500  0.02500  0.02800  0.02800
 T, K              345.00   350.00   355.00   360.00   365.00   370.00   300.00   305.00
 RHO, KG/CU M    1.7569-3 1.7318-3 1.7074-3 1.6837-3 1.6606-3 1.6382-3 2.2629-3 2.2258-3
 H, KJ/KG          673.22   745.34   817.50   889.70   961.93  1034.19   26.469   98.065
 U, KJ/KG         -749.73  -698.23  -646.69  -595.11  -543.51  -491.87 -1210.88 -1159.90
 G, KJ/KG        -27664.2 -28075.5 -28487.7 -28901.0 -29315.2 -29730.5 -23872.1 -24270.9
 S, KJ/(KG)(K)    82.1376  82.3451  82.5499  82.7518  82.9511  83.1477  79.6618  79.8984

 M, (1/n)           2.016    2.016    2.016    2.016    2.016    2.016    2.016    2.016
 (dLV/dLP)t      -0.99999 -0.99999 -0.99999 -0.99999 -0.99999 -0.99999 -0.99999 -0.99999
 (dLV/dLT)p        1.0000   1.0000   1.0000   1.0000   1.0000   1.0000   1.0000   1.0000
 Cp, KJ/(KG)(K)   14.4207  14.4286  14.4360  14.4427  14.4489  14.4545  14.3109  14.3272
 GAMMAs            1.4006   1.4003   1.4000   1.3997   1.3995   1.3993   1.4049   1.4043
 SON VEL,M/SEC     1411.7   1421.8   1431.7   1441.6   1451.5   1461.3   1318.5   1329.1

 TRANSPORT PROPERTIES (GASES ONLY)
   CONDUCTIVITY IN UNITS OF MILLIWATTS/(CM)(K)

 VISC,MILLIPOISE  0.00132  0.00967  0.04504  0.08666  0.09994  0.10297  0.00000  0.00000

  WITH EQUILIBRIUM REACTIONS

 Cp, KJ/(KG)(K)   14.4207  14.4286  14.4360  14.4427  14.4489  14.4545  14.3109  14.3272
 CONDUCTIVITY      0.0082   0.0641   0.4072   1.3507   1.9898   2.1505   0.0000   0.0000
 PRANDTL NUMBER    2.3128   2.1752   1.5965   0.9266   0.7257   0.6921   2.3304   2.3307

  WITH FROZEN REACTIONS

 Cp, KJ/(KG)(K)   14.4207  14.4286  14.4360  14.4427  14.4489  14.4545  14.3109  14.3272
 CONDUCTIVITY      0.0082   0.0641   0.4072   1.3507   1.9898   2.1505   0.0000   0.0000
 PRANDTL NUMBER    2.3128   2.1752   1.5965   0.9266   0.7257   0.6921   2.3304   2.3307

 MASS FRACTIONS

 *H2              1.00000  1.00000  1.00000  1.00000  1.00000  1.00000  1.00000  1.00000

  * THERMODYNAMIC PROPERTIES FITTED TO 20000.K

 NOTE. WEIGHT FRACTION OF FUEL IN TOTAL FUELS AND OF OXIDANT IN TOTAL OXIDANTS









               THERMODYNAMIC EQUILIBRIUM PROPERTIES AT ASSIGNED

                           TEMPERATURE AND PRESSURE

 CASE =                

             REACTANT                    WT FRACTION      ENERGY      TEMP
                                          (SEE NOTE)     KJ/KG-MOL      K  
 FUEL        H2                           1.0000000         0.000      0.000
 OXIDANT     H2                           1.0000000         0.000      0.000

 O/F=    1.00000  %FUEL= 50.000000  R,EQ.RATIO= 0.000000  PHI,EQ.RATIO=-1.000000

 THERMODYNAMIC PROPERTIES

 P, BAR           0.02800  0.02800  0.02800  0.02800  0.02800  0.02800  0.02800  0.02800
 T, K              310.00   315.00   320.00   325.00   330.00   335.00   340.00   345.00
 RHO, KG/CU M    2.1899-3 2.1552-3 2.1215-3 2.0888-3 2.0572-3 2.0265-3 1.9967-3 1.9677-3
 H, KJ/KG          169.74   241.49   313.30   385.18   457.11   529.10   601.14   673.22
 U, KJ/KG        -1108.85 -1057.73 -1006.53  -955.28  -903.97  -852.60  -801.19  -749.73
 G, KJ/KG        -24671.0 -25072.2 -25474.6 -25878.1 -26282.7 -26688.4 -27095.2 -27503.0
 S, KJ/(KG)(K)    80.1314  80.3610  80.5872  80.8101  81.0297  81.2463  81.4597  81.6702

 M, (1/n)           2.016    2.016    2.016    2.016    2.016    2.016    2.016    2.016
 (dLV/dLP)t      -0.99999 -0.99999 -0.99999 -0.99999 -0.99999 -0.99999 -0.99999 -0.99999
 (dLV/dLT)p        1.0000   1.0000   1.0000   1.0000   1.0000   1.0000   1.0000   1.0000
 Cp, KJ/(KG)(K)   14.3423  14.3563  14.3693  14.3813  14.3923  14.4026  14.4120  14.4207
 GAMMAs            1.4037   1.4031   1.4026   1.4021   1.4017   1.4013   1.4009   1.4006
 SON VEL,M/SEC     1339.7   1350.2   1360.6   1370.9   1381.2   1391.5   1401.6   1411.7

 TRANSPORT PROPERTIES (GASES ONLY)
   CONDUCTIVITY IN UNITS OF MILLIWATTS/(CM)(K)

 VISC,MILLIPOISE  0.00000  0.00000  0.00000  0.00000  0.00000  0.00002  0.00016  0.00132

  WITH EQUILIBRIUM REACTIONS

 Cp, KJ/(KG)(K)   14.3423  14.3563  14.3693  14.3813  14.3923  14.4026  14.4120  14.4207
 CONDUCTIVITY      0.0000   0.0000   0.0000   0.0000   0.0000   0.0001   0.0010   0.0082
 PRANDTL NUMBER    2.3311   2.3315   2.3320   2.3326   2.3331   2.3334   2.3316   2.3128

  WITH FROZEN REACTIONS

 Cp, KJ/(KG)(K)   14.3423  14.3563  14.3693  14.3813  14.3923  14.4026  14.4120  14.4207
 CONDUCTIVITY      0.0000   0.0000   0.0000   0.0000   0.0000   0.0001   0.0010   0.0082
 PRANDTL NUMBER    2.3311   2.3315   2.3320   2.3326   2.3331   2.3334   2.3316   2.3128

 MASS FRACTIONS

 *H2              1.00000  1.00000  1.00000  1.00000  1.00000  1.00000  1.00000  1.00000

  * THERMODYNAMIC PROPERTIES FITTED TO 20000.K

 NOTE. WEIGHT FRACTION OF FUEL IN TOTAL FUELS AND OF OXIDANT IN TOTAL OXIDANTS









               THERMODYNAMIC EQUILIBRIUM PROPERTIES AT ASSIGNED

                           TEMPERATURE AND PRESSURE

 CASE =                

             REACTANT                    WT FRACTION      ENERGY      TEMP
                                          (SEE NOTE)     KJ/KG-MOL      K  
 FUEL        H2                           1.0000000         0.000      0.000
 OXIDANT     H2                           1.0000000         0.000      0.000

 O/F=    1.00000  %FUEL= 50.000000  R,EQ.RATIO= 0.000000  PHI,EQ.RATIO=-1.000000

 THERMODYNAMIC PROPERTIES

 P, BAR           0.02800  0.02800  0.02800  0.02800  0.02800  0.03100  0.03100  0.03100
 T, K              350.00   355.00   360.00   365.00   370.00   300.00   305.00   310.00
 RHO, KG/CU M    1.9396-3 1.9123-3 1.8858-3 1.8599-3 1.8348-3 2.5054-3 2.4643-3 2.4245-3
 H, KJ/KG          745.34   817.50   889.70   961.93  1034.19   26.469   98.065   169.74
 U, KJ/KG         -698.23  -646.69  -595.11  -543.51  -491.87 -1210.88 -1159.90 -1108.85
 G, KJ/KG        -27911.9 -28321.8 -28732.7 -29144.6 -29557.5 -23746.1 -24142.9 -24540.9
 S, KJ/(KG)(K)    81.8777  82.0824  82.2844  82.4836  82.6803  79.2420  79.4786  79.7116

 M, (1/n)           2.016    2.016    2.016    2.016    2.016    2.016    2.016    2.016
 (dLV/dLP)t      -0.99999 -0.99999 -0.99999 -0.99999 -0.99999 -0.99999 -0.99999 -0.99999
 (dLV/dLT)p        1.0000   1.0000   1.0000   1.0000   1.0000   1.0000   1.0000   1.0000
 Cp, KJ/(KG)(K)   14.4286  14.4360  14.4427  14.4489  14.4545  14.3109  14.3272  14.3423
 GAMMAs            1.4003   1.4000   1.3997   1.3995   1.3993   1.4049   1.4043   1.4037
 SON VEL,M/SEC     1421.8   1431.7   1441.6   1451.5   1461.3   1318.5   1329.1   1339.7

 TRANSPORT PROPERTIES (GASES ONLY)
   CONDUCTIVITY IN UNITS OF MILLIWATTS/(CM)(K)

 VISC,MILLIPOISE  0.00967  0.04504  0.08666  0.09994  0.10297  0.00000  0.00000  0.00000

  WITH EQUILIBRIUM REACTIONS

 Cp, KJ/(KG)(K)   14.4286  14.4360  14.4427  14.4489  14.4545  14.3109  14.3272  14.3423
 CONDUCTIVITY      0.0641   0.4072   1.3507   1.9898   2.1505   0.0000   0.0000   0.0000
 PRANDTL NUMBER    2.1752   1.5965   0.9266   0.7257   0.6921   2.3304   2.3307   2.3311

  WITH FROZEN REACTIONS

 Cp, KJ/(KG)(K)   14.4286  14.4360  14.4427  14.4489  14.4545  14.3109  14.3272  14.3423
 CONDUCTIVITY      0.0641   0.4072   1.3507   1.9898   2.1505   0.0000   0.0000   0.0000
 PRANDTL NUMBER    2.1752   1.5965   0.9266   0.7257   0.6921   2.3304   2.3307   2.3311

 MASS FRACTIONS

 *H2              1.00000  1.00000  1.00000  1.00000  1.00000  1.00000  1.00000  1.00000

  * THERMODYNAMIC PROPERTIES FITTED TO 20000.K

 NOTE. WEIGHT FRACTION OF FUEL IN TOTAL FUELS AND OF OXIDANT IN TOTAL OXIDANTS









               THERMODYNAMIC EQUILIBRIUM PROPERTIES AT ASSIGNED

                           TEMPERATURE AND PRESSURE

 CASE =                

             REACTANT                    WT FRACTION      ENERGY      TEMP
                                          (SEE NOTE)     KJ/KG-MOL      K  
 FUEL        H2                           1.0000000         0.000      0.000
 OXIDANT     H2                           1.0000000         0.000      0.000

 O/F=    1.00000  %FUEL= 50.000000  R,EQ.RATIO= 0.000000  PHI,EQ.RATIO=-1.000000

 THERMODYNAMIC PROPERTIES

 P, BAR           0.03100  0.03100  0.03100  0.03100  0.03100  0.03100  0.03100  0.03100
 T, K              315.00   320.00   325.00   330.00   335.00   340.00   345.00   350.00
 RHO, KG/CU M    2.3861-3 2.3488-3 2.3126-3 2.2776-3 2.2436-3 2.2106-3 2.1786-3 2.1475-3
 H, KJ/KG          241.49   313.30   385.18   457.11   529.10   601.14   673.22   745.34
 U, KJ/KG        -1057.73 -1006.53  -955.28  -903.97  -852.60  -801.19  -749.73  -698.23
 G, KJ/KG        -24940.0 -25340.3 -25741.7 -26144.2 -26547.8 -26952.4 -27358.2 -27764.9
 S, KJ/(KG)(K)    79.9412  80.1674  80.3903  80.6099  80.8264  81.0399  81.2504  81.4579

 M, (1/n)           2.016    2.016    2.016    2.016    2.016    2.016    2.016    2.016
 (dLV/dLP)t      -0.99999 -0.99999 -0.99999 -0.99999 -0.99999 -0.99999 -0.99999 -0.99999
 (dLV/dLT)p        1.0000   1.0000   1.0000   1.0000   1.0000   1.0000   1.0000   1.0000
 Cp, KJ/(KG)(K)   14.3563  14.3693  14.3813  14.3923  14.4026  14.4120  14.4207  14.4286
 GAMMAs            1.4031   1.4026   1.4021   1.4017   1.4013   1.4009   1.4006   1.4003
 SON VEL,M/SEC     1350.2   1360.6   1370.9   1381.2   1391.5   1401.6   1411.7   1421.8

 TRANSPORT PROPERTIES (GASES ONLY)
   CONDUCTIVITY IN UNITS OF MILLIWATTS/(CM)(K)

 VISC,MILLIPOISE  0.00000  0.00000  0.00000  0.00000  0.00002  0.00016  0.00132  0.00967

  WITH EQUILIBRIUM REACTIONS

 Cp, KJ/(KG)(K)   14.3563  14.3693  14.3813  14.3923  14.4026  14.4120  14.4207  14.4286
 CONDUCTIVITY      0.0000   0.0000   0.0000   0.0000   0.0001   0.0010   0.0082   0.0641
 PRANDTL NUMBER    2.3315   2.3320   2.3326   2.3331   2.3334   2.3316   2.3128   2.1752

  WITH FROZEN REACTIONS

 Cp, KJ/(KG)(K)   14.3563  14.3693  14.3813  14.3923  14.4026  14.4120  14.4207  14.4286
 CONDUCTIVITY      0.0000   0.0000   0.0000   0.0000   0.0001   0.0010   0.0082   0.0641
 PRANDTL NUMBER    2.3315   2.3320   2.3326   2.3331   2.3334   2.3316   2.3128   2.1752

 MASS FRACTIONS

 *H2              1.00000  1.00000  1.00000  1.00000  1.00000  1.00000  1.00000  1.00000

  * THERMODYNAMIC PROPERTIES FITTED TO 20000.K

 NOTE. WEIGHT FRACTION OF FUEL IN TOTAL FUELS AND OF OXIDANT IN TOTAL OXIDANTS









               THERMODYNAMIC EQUILIBRIUM PROPERTIES AT ASSIGNED

                           TEMPERATURE AND PRESSURE

 CASE =                

             REACTANT                    WT FRACTION      ENERGY      TEMP
                                          (SEE NOTE)     KJ/KG-MOL      K  
 FUEL        H2                           1.0000000         0.000      0.000
 OXIDANT     H2                           1.0000000         0.000      0.000

 O/F=    1.00000  %FUEL= 50.000000  R,EQ.RATIO= 0.000000  PHI,EQ.RATIO=-1.000000

 THERMODYNAMIC PROPERTIES

 P, BAR           0.03100  0.03100  0.03100  0.03100  0.03500  0.03500  0.03500  0.03500
 T, K              355.00   360.00   365.00   370.00   300.00   305.00   310.00   315.00
 RHO, KG/CU M    2.1172-3 2.0878-3 2.0592-3 2.0314-3 2.8286-3 2.7823-3 2.7374-3 2.6939-3
 H, KJ/KG          817.50   889.70   961.93  1034.19   26.469   98.065   169.74   241.49
 U, KJ/KG         -646.69  -595.11  -543.51  -491.87 -1210.88 -1159.90 -1108.85 -1057.73
 G, KJ/KG        -28172.7 -28581.5 -28991.4 -29402.2 -23596.0 -23990.2 -24385.7 -24782.3
 S, KJ/(KG)(K)    81.6626  81.8646  82.0638  82.2605  78.7414  78.9780  79.2111  79.4407

 M, (1/n)           2.016    2.016    2.016    2.016    2.016    2.016    2.016    2.016
 (dLV/dLP)t      -0.99999 -0.99999 -0.99999 -0.99999 -0.99999 -0.99999 -0.99999 -0.99999
 (dLV/dLT)p        1.0000   1.0000   1.0000   1.0000   1.0000   1.0000   1.0000   1.0000
 Cp, KJ/(KG)(K)   14.4360  14.4427  14.4489  14.4545  14.3109  14.3272  14.3423  14.3563
 GAMMAs            1.4000   1.3997   1.3995   1.3993   1.4049   1.4043   1.4037   1.4031
 SON VEL,M/SEC     1431.7   1441.6   1451.5   1461.3   1318.5   1329.1   1339.7   1350.2

 TRANSPORT PROPERTIES (GASES ONLY)
   CONDUCTIVITY IN UNITS OF MILLIWATTS/(CM)(K)

 VISC,MILLIPOISE  0.04504  0.08666  0.09994  0.10297  0.00000  0.00000  0.00000  0.00000

  WITH EQUILIBRIUM REACTIONS

 Cp, KJ/(KG)(K)   14.4360  14.4427  14.4489  14.4545  14.3109  14.3272  14.3423  14.3563
 CONDUCTIVITY      0.4072   1.3507   1.9898   2.1505   0.0000   0.0000   0.0000   0.0000
 PRANDTL NUMBER    1.5965   0.9266   0.7257   0.6921   2.3304   2.3307   2.3311   2.3315

  WITH FROZEN REACTIONS

 Cp, KJ/(KG)(K)   14.4360  14.4427  14.4489  14.4545  14.3109  14.3272  14.3423  14.3563
 CONDUCTIVITY      0.4072   1.3507   1.9898   2.1505   0.0000   0.0000   0.0000   0.0000
 PRANDTL NUMBER    1.5965   0.9266   0.7257   0.6921   2.3304   2.3307   2.3311   2.3315

 MASS FRACTIONS

 *H2              1.00000  1.00000  1.00000  1.00000  1.00000  1.00000  1.00000  1.00000

  * THERMODYNAMIC PROPERTIES FITTED TO 20000.K

 NOTE. WEIGHT FRACTION OF FUEL IN TOTAL FUELS AND OF OXIDANT IN TOTAL OXIDANTS









               THERMODYNAMIC EQUILIBRIUM PROPERTIES AT ASSIGNED

                           TEMPERATURE AND PRESSURE

 CASE =                

             REACTANT                    WT FRACTION      ENERGY      TEMP
                                          (SEE NOTE)     KJ/KG-MOL      K  
 FUEL        H2                           1.0000000         0.000      0.000
 OXIDANT     H2                           1.0000000         0.000      0.000

 O/F=    1.00000  %FUEL= 50.000000  R,EQ.RATIO= 0.000000  PHI,EQ.RATIO=-1.000000

 THERMODYNAMIC PROPERTIES

 P, BAR           0.03500  0.03500  0.03500  0.03500  0.03500  0.03500  0.03500  0.03500
 T, K              320.00   325.00   330.00   335.00   340.00   345.00   350.00   355.00
 RHO, KG/CU M    2.6518-3 2.6111-3 2.5715-3 2.5331-3 2.4959-3 2.4597-3 2.4245-3 2.3904-3
 H, KJ/KG          313.30   385.18   457.11   529.10   601.14   673.22   745.34   817.50
 U, KJ/KG        -1006.53  -955.28  -903.97  -852.60  -801.19  -749.73  -698.23  -646.69
 G, KJ/KG        -25180.1 -25579.0 -25979.0 -26380.1 -26782.2 -27185.5 -27589.7 -27995.0
 S, KJ/(KG)(K)    79.6669  79.8897  80.1094  80.3259  80.5393  80.7498  80.9574  81.1621

 M, (1/n)           2.016    2.016    2.016    2.016    2.016    2.016    2.016    2.016
 (dLV/dLP)t      -0.99999 -0.99999 -0.99999 -0.99999 -0.99999 -0.99999 -0.99999 -0.99999
 (dLV/dLT)p        1.0000   1.0000   1.0000   1.0000   1.0000   1.0000   1.0000   1.0000
 Cp, KJ/(KG)(K)   14.3693  14.3813  14.3923  14.4026  14.4120  14.4207  14.4286  14.4360
 GAMMAs            1.4026   1.4021   1.4017   1.4013   1.4009   1.4006   1.4003   1.4000
 SON VEL,M/SEC     1360.6   1370.9   1381.2   1391.5   1401.6   1411.7   1421.8   1431.7

 TRANSPORT PROPERTIES (GASES ONLY)
   CONDUCTIVITY IN UNITS OF MILLIWATTS/(CM)(K)

 VISC,MILLIPOISE  0.00000  0.00000  0.00000  0.00002  0.00016  0.00132  0.00967  0.04504

  WITH EQUILIBRIUM REACTIONS

 Cp, KJ/(KG)(K)   14.3693  14.3813  14.3923  14.4026  14.4120  14.4207  14.4286  14.4360
 CONDUCTIVITY      0.0000   0.0000   0.0000   0.0001   0.0010   0.0082   0.0641   0.4072
 PRANDTL NUMBER    2.3320   2.3326   2.3331   2.3334   2.3316   2.3128   2.1752   1.5965

  WITH FROZEN REACTIONS

 Cp, KJ/(KG)(K)   14.3693  14.3813  14.3923  14.4026  14.4120  14.4207  14.4286  14.4360
 CONDUCTIVITY      0.0000   0.0000   0.0000   0.0001   0.0010   0.0082   0.0641   0.4072
 PRANDTL NUMBER    2.3320   2.3326   2.3331   2.3334   2.3316   2.3128   2.1752   1.5965

 MASS FRACTIONS

 *H2              1.00000  1.00000  1.00000  1.00000  1.00000  1.00000  1.00000  1.00000

  * THERMODYNAMIC PROPERTIES FITTED TO 20000.K

 NOTE. WEIGHT FRACTION OF FUEL IN TOTAL FUELS AND OF OXIDANT IN TOTAL OXIDANTS









               THERMODYNAMIC EQUILIBRIUM PROPERTIES AT ASSIGNED

                           TEMPERATURE AND PRESSURE

 CASE =                

             REACTANT                    WT FRACTION      ENERGY      TEMP
                                          (SEE NOTE)     KJ/KG-MOL      K  
 FUEL        H2                           1.0000000         0.000      0.000
 OXIDANT     H2                           1.0000000         0.000      0.000

 O/F=    1.00000  %FUEL= 50.000000  R,EQ.RATIO= 0.000000  PHI,EQ.RATIO=-1.000000

 THERMODYNAMIC PROPERTIES

 P, BAR           0.03500  0.03500  0.03500  0.03900  0.03900  0.03900  0.03900  0.03900
 T, K              360.00   365.00   370.00   300.00   305.00   310.00   315.00   320.00
 RHO, KG/CU M    2.3572-3 2.3249-3 2.2935-3 3.1519-3 3.1002-3 3.0502-3 3.0018-3 2.9549-3
 H, KJ/KG          889.70   961.93  1034.19   26.469   98.065   169.74   241.49   313.30
 U, KJ/KG         -595.11  -543.51  -491.87 -1210.88 -1159.90 -1108.85 -1057.73 -1006.53
 G, KJ/KG        -28401.3 -28808.7 -29217.0 -23462.1 -23854.1 -24247.3 -24641.7 -25037.3
 S, KJ/(KG)(K)    81.3640  81.5633  81.7599  78.2951  78.5317  78.7648  78.9943  79.2205

 M, (1/n)           2.016    2.016    2.016    2.016    2.016    2.016    2.016    2.016
 (dLV/dLP)t      -0.99999 -0.99999 -0.99999 -0.99999 -0.99999 -0.99999 -0.99999 -0.99999
 (dLV/dLT)p        1.0000   1.0000   1.0000   1.0000   1.0000   1.0000   1.0000   1.0000
 Cp, KJ/(KG)(K)   14.4427  14.4489  14.4545  14.3109  14.3272  14.3423  14.3563  14.3693
 GAMMAs            1.3997   1.3995   1.3993   1.4049   1.4043   1.4037   1.4031   1.4026
 SON VEL,M/SEC     1441.6   1451.5   1461.3   1318.5   1329.1   1339.7   1350.2   1360.6

 TRANSPORT PROPERTIES (GASES ONLY)
   CONDUCTIVITY IN UNITS OF MILLIWATTS/(CM)(K)

 VISC,MILLIPOISE  0.08666  0.09994  0.10297  0.00000  0.00000  0.00000  0.00000  0.00000

  WITH EQUILIBRIUM REACTIONS

 Cp, KJ/(KG)(K)   14.4427  14.4489  14.4545  14.3109  14.3272  14.3423  14.3563  14.3693
 CONDUCTIVITY      1.3507   1.9898   2.1505   0.0000   0.0000   0.0000   0.0000   0.0000
 PRANDTL NUMBER    0.9266   0.7257   0.6921   2.3304   2.3307   2.3311   2.3315   2.3320

  WITH FROZEN REACTIONS

 Cp, KJ/(KG)(K)   14.4427  14.4489  14.4545  14.3109  14.3272  14.3423  14.3563  14.3693
 CONDUCTIVITY      1.3507   1.9898   2.1505   0.0000   0.0000   0.0000   0.0000   0.0000
 PRANDTL NUMBER    0.9266   0.7257   0.6921   2.3304   2.3307   2.3311   2.3315   2.3320

 MASS FRACTIONS

 *H2              1.00000  1.00000  1.00000  1.00000  1.00000  1.00000  1.00000  1.00000

  * THERMODYNAMIC PROPERTIES FITTED TO 20000.K

 NOTE. WEIGHT FRACTION OF FUEL IN TOTAL FUELS AND OF OXIDANT IN TOTAL OXIDANTS









               THERMODYNAMIC EQUILIBRIUM PROPERTIES AT ASSIGNED

                           TEMPERATURE AND PRESSURE

 CASE =                

             REACTANT                    WT FRACTION      ENERGY      TEMP
                                          (SEE NOTE)     KJ/KG-MOL      K  
 FUEL        H2                           1.0000000         0.000      0.000
 OXIDANT     H2                           1.0000000         0.000      0.000

 O/F=    1.00000  %FUEL= 50.000000  R,EQ.RATIO= 0.000000  PHI,EQ.RATIO=-1.000000

 THERMODYNAMIC PROPERTIES

 P, BAR           0.03900  0.03900  0.03900  0.03900  0.03900  0.03900  0.03900  0.03900
 T, K              325.00   330.00   335.00   340.00   345.00   350.00   355.00   360.00
 RHO, KG/CU M    2.9095-3 2.8654-3 2.8226-3 2.7811-3 2.7408-3 2.7016-3 2.6636-3 2.6266-3
 H, KJ/KG          385.18   457.11   529.10   601.14   673.22   745.34   817.50   889.70
 U, KJ/KG         -955.28  -903.97  -852.60  -801.19  -749.73  -698.23  -646.69  -595.11
 G, KJ/KG        -25433.9 -25831.7 -26230.6 -26630.5 -27031.5 -27433.5 -27836.6 -28240.7
 S, KJ/(KG)(K)    79.4434  79.6631  79.8796  80.0930  80.3035  80.5110  80.7157  80.9177

 M, (1/n)           2.016    2.016    2.016    2.016    2.016    2.016    2.016    2.016
 (dLV/dLP)t      -0.99999 -0.99999 -0.99999 -0.99999 -0.99999 -0.99999 -0.99999 -0.99999
 (dLV/dLT)p        1.0000   1.0000   1.0000   1.0000   1.0000   1.0000   1.0000   1.0000
 Cp, KJ/(KG)(K)   14.3813  14.3923  14.4026  14.4120  14.4207  14.4286  14.4360  14.4427
 GAMMAs            1.4021   1.4017   1.4013   1.4009   1.4006   1.4003   1.4000   1.3997
 SON VEL,M/SEC     1370.9   1381.2   1391.5   1401.6   1411.7   1421.8   1431.7   1441.6

 TRANSPORT PROPERTIES (GASES ONLY)
   CONDUCTIVITY IN UNITS OF MILLIWATTS/(CM)(K)

 VISC,MILLIPOISE  0.00000  0.00000  0.00002  0.00016  0.00132  0.00967  0.04504  0.08666

  WITH EQUILIBRIUM REACTIONS

 Cp, KJ/(KG)(K)   14.3813  14.3923  14.4026  14.4120  14.4207  14.4286  14.4360  14.4427
 CONDUCTIVITY      0.0000   0.0000   0.0001   0.0010   0.0082   0.0641   0.4072   1.3507
 PRANDTL NUMBER    2.3326   2.3331   2.3334   2.3316   2.3128   2.1752   1.5965   0.9266

  WITH FROZEN REACTIONS

 Cp, KJ/(KG)(K)   14.3813  14.3923  14.4026  14.4120  14.4207  14.4286  14.4360  14.4427
 CONDUCTIVITY      0.0000   0.0000   0.0001   0.0010   0.0082   0.0641   0.4072   1.3507
 PRANDTL NUMBER    2.3326   2.3331   2.3334   2.3316   2.3128   2.1752   1.5965   0.9266

 MASS FRACTIONS

 *H2              1.00000  1.00000  1.00000  1.00000  1.00000  1.00000  1.00000  1.00000

  * THERMODYNAMIC PROPERTIES FITTED TO 20000.K

 NOTE. WEIGHT FRACTION OF FUEL IN TOTAL FUELS AND OF OXIDANT IN TOTAL OXIDANTS









               THERMODYNAMIC EQUILIBRIUM PROPERTIES AT ASSIGNED

                           TEMPERATURE AND PRESSURE

 CASE =                

             REACTANT                    WT FRACTION      ENERGY      TEMP
                                          (SEE NOTE)     KJ/KG-MOL      K  
 FUEL        H2                           1.0000000         0.000      0.000
 OXIDANT     H2                           1.0000000         0.000      0.000

 O/F=    1.00000  %FUEL= 50.000000  R,EQ.RATIO= 0.000000  PHI,EQ.RATIO=-1.000000

 THERMODYNAMIC PROPERTIES

 P, BAR           0.03900  0.03900  0.04400  0.04400  0.04400  0.04400  0.04400  0.04400
 T, K              365.00   370.00   300.00   305.00   310.00   315.00   320.00   325.00
 RHO, KG/CU M    2.5906-3 2.5556-3 3.5560-3 3.4977-3 3.4413-3 3.3867-3 3.3338-3 3.2825-3
 H, KJ/KG          961.93  1034.19   26.469   98.065   169.74   241.49   313.30   385.18
 U, KJ/KG         -543.51  -491.87 -1210.88 -1159.90 -1108.85 -1057.73 -1006.53  -955.28
 G, KJ/KG        -28645.8 -29051.8 -23312.8 -23702.4 -24093.1 -24485.0 -24878.1 -25272.2
 S, KJ/(KG)(K)    81.1170  81.3136  77.7976  78.0342  78.2672  78.4968  78.7230  78.9459

 M, (1/n)           2.016    2.016    2.016    2.016    2.016    2.016    2.016    2.016
 (dLV/dLP)t      -0.99999 -0.99999 -0.99999 -0.99999 -0.99999 -0.99999 -0.99999 -0.99999
 (dLV/dLT)p        1.0000   1.0000   1.0000   1.0000   1.0000   1.0000   1.0000   1.0000
 Cp, KJ/(KG)(K)   14.4489  14.4545  14.3109  14.3272  14.3423  14.3563  14.3693  14.3813
 GAMMAs            1.3995   1.3993   1.4049   1.4043   1.4037   1.4031   1.4026   1.4021
 SON VEL,M/SEC     1451.5   1461.3   1318.5   1329.1   1339.7   1350.2   1360.6   1370.9

 TRANSPORT PROPERTIES (GASES ONLY)
   CONDUCTIVITY IN UNITS OF MILLIWATTS/(CM)(K)

 VISC,MILLIPOISE  0.09994  0.10297  0.00000  0.00000  0.00000  0.00000  0.00000  0.00000

  WITH EQUILIBRIUM REACTIONS

 Cp, KJ/(KG)(K)   14.4489  14.4545  14.3109  14.3272  14.3423  14.3563  14.3693  14.3813
 CONDUCTIVITY      1.9898   2.1505   0.0000   0.0000   0.0000   0.0000   0.0000   0.0000
 PRANDTL NUMBER    0.7257   0.6921   2.3304   2.3307   2.3311   2.3315   2.3320   2.3326

  WITH FROZEN REACTIONS

 Cp, KJ/(KG)(K)   14.4489  14.4545  14.3109  14.3272  14.3423  14.3563  14.3693  14.3813
 CONDUCTIVITY      1.9898   2.1505   0.0000   0.0000   0.0000   0.0000   0.0000   0.0000
 PRANDTL NUMBER    0.7257   0.6921   2.3304   2.3307   2.3311   2.3315   2.3320   2.3326

 MASS FRACTIONS

 *H2              1.00000  1.00000  1.00000  1.00000  1.00000  1.00000  1.00000  1.00000

  * THERMODYNAMIC PROPERTIES FITTED TO 20000.K

 NOTE. WEIGHT FRACTION OF FUEL IN TOTAL FUELS AND OF OXIDANT IN TOTAL OXIDANTS









               THERMODYNAMIC EQUILIBRIUM PROPERTIES AT ASSIGNED

                           TEMPERATURE AND PRESSURE

 CASE =                

             REACTANT                    WT FRACTION      ENERGY      TEMP
                                          (SEE NOTE)     KJ/KG-MOL      K  
 FUEL        H2                           1.0000000         0.000      0.000
 OXIDANT     H2                           1.0000000         0.000      0.000

 O/F=    1.00000  %FUEL= 50.000000  R,EQ.RATIO= 0.000000  PHI,EQ.RATIO=-1.000000

 THERMODYNAMIC PROPERTIES

 P, BAR           0.04400  0.04400  0.04400  0.04400  0.04400  0.04400  0.04400  0.04400
 T, K              330.00   335.00   340.00   345.00   350.00   355.00   360.00   365.00
 RHO, KG/CU M    3.2327-3 3.1845-3 3.1376-3 3.0922-3 3.0480-3 3.0051-3 2.9633-3 2.9227-3
 H, KJ/KG          457.11   529.10   601.14   673.22   745.34   817.50   889.70   961.93
 U, KJ/KG         -903.97  -852.60  -801.19  -749.73  -698.23  -646.69  -595.11  -543.51
 G, KJ/KG        -25667.5 -26063.9 -26461.3 -26859.8 -27259.4 -27660.0 -28061.6 -28464.2
 S, KJ/(KG)(K)    79.1655  79.3820  79.5955  79.8059  80.0135  80.2182  80.4202  80.6194

 M, (1/n)           2.016    2.016    2.016    2.016    2.016    2.016    2.016    2.016
 (dLV/dLP)t      -0.99999 -0.99999 -0.99999 -0.99999 -0.99999 -0.99999 -0.99999 -0.99999
 (dLV/dLT)p        1.0000   1.0000   1.0000   1.0000   1.0000   1.0000   1.0000   1.0000
 Cp, KJ/(KG)(K)   14.3923  14.4026  14.4120  14.4207  14.4286  14.4360  14.4427  14.4489
 GAMMAs            1.4017   1.4013   1.4009   1.4006   1.4003   1.4000   1.3997   1.3995
 SON VEL,M/SEC     1381.2   1391.5   1401.6   1411.7   1421.8   1431.7   1441.6   1451.5

 TRANSPORT PROPERTIES (GASES ONLY)
   CONDUCTIVITY IN UNITS OF MILLIWATTS/(CM)(K)

 VISC,MILLIPOISE  0.00000  0.00002  0.00016  0.00132  0.00967  0.04504  0.08666  0.09994

  WITH EQUILIBRIUM REACTIONS

 Cp, KJ/(KG)(K)   14.3923  14.4026  14.4120  14.4207  14.4286  14.4360  14.4427  14.4489
 CONDUCTIVITY      0.0000   0.0001   0.0010   0.0082   0.0641   0.4072   1.3507   1.9898
 PRANDTL NUMBER    2.3331   2.3334   2.3316   2.3128   2.1752   1.5965   0.9266   0.7257

  WITH FROZEN REACTIONS

 Cp, KJ/(KG)(K)   14.3923  14.4026  14.4120  14.4207  14.4286  14.4360  14.4427  14.4489
 CONDUCTIVITY      0.0000   0.0001   0.0010   0.0082   0.0641   0.4072   1.3507   1.9898
 PRANDTL NUMBER    2.3331   2.3334   2.3316   2.3128   2.1752   1.5965   0.9266   0.7257

 MASS FRACTIONS

 *H2              1.00000  1.00000  1.00000  1.00000  1.00000  1.00000  1.00000  1.00000

  * THERMODYNAMIC PROPERTIES FITTED TO 20000.K

 NOTE. WEIGHT FRACTION OF FUEL IN TOTAL FUELS AND OF OXIDANT IN TOTAL OXIDANTS









               THERMODYNAMIC EQUILIBRIUM PROPERTIES AT ASSIGNED

                           TEMPERATURE AND PRESSURE

 CASE =                

             REACTANT                    WT FRACTION      ENERGY      TEMP
                                          (SEE NOTE)     KJ/KG-MOL      K  
 FUEL        H2                           1.0000000         0.000      0.000
 OXIDANT     H2                           1.0000000         0.000      0.000

 O/F=    1.00000  %FUEL= 50.000000  R,EQ.RATIO= 0.000000  PHI,EQ.RATIO=-1.000000

 THERMODYNAMIC PROPERTIES

 P, BAR           0.04400  0.04900  0.04900  0.04900  0.04900  0.04900  0.04900  0.04900
 T, K              370.00   300.00   305.00   310.00   315.00   320.00   325.00   330.00
 RHO, KG/CU M    2.8832-3 3.9601-3 3.8952-3 3.8323-3 3.7715-3 3.7126-3 3.6555-3 3.6001-3
 H, KJ/KG         1034.19   26.469   98.065   169.74   241.49   313.30   385.18   457.11
 U, KJ/KG         -491.87 -1210.88 -1159.90 -1108.85 -1057.73 -1006.53  -955.28  -903.97
 G, KJ/KG        -28867.7 -23179.6 -23567.0 -23955.5 -24345.2 -24736.0 -25128.0 -25521.0
 S, KJ/(KG)(K)    80.8160  77.3536  77.5902  77.8233  78.0529  78.2791  78.5020  78.7216

 M, (1/n)           2.016    2.016    2.016    2.016    2.016    2.016    2.016    2.016
 (dLV/dLP)t      -0.99999 -0.99999 -0.99999 -0.99999 -0.99999 -0.99999 -0.99999 -0.99999
 (dLV/dLT)p        1.0000   1.0000   1.0000   1.0000   1.0000   1.0000   1.0000   1.0000
 Cp, KJ/(KG)(K)   14.4545  14.3109  14.3272  14.3423  14.3563  14.3693  14.3813  14.3923
 GAMMAs            1.3993   1.4049   1.4043   1.4037   1.4031   1.4026   1.4021   1.4017
 SON VEL,M/SEC     1461.3   1318.5   1329.1   1339.7   1350.2   1360.6   1370.9   1381.2

 TRANSPORT PROPERTIES (GASES ONLY)
   CONDUCTIVITY IN UNITS OF MILLIWATTS/(CM)(K)

 VISC,MILLIPOISE  0.10297  0.00000  0.00000  0.00000  0.00000  0.00000  0.00000  0.00000

  WITH EQUILIBRIUM REACTIONS

 Cp, KJ/(KG)(K)   14.4545  14.3109  14.3272  14.3423  14.3563  14.3693  14.3813  14.3923
 CONDUCTIVITY      2.1505   0.0000   0.0000   0.0000   0.0000   0.0000   0.0000   0.0000
 PRANDTL NUMBER    0.6921   2.3304   2.3307   2.3311   2.3315   2.3320   2.3326   2.3331

  WITH FROZEN REACTIONS

 Cp, KJ/(KG)(K)   14.4545  14.3109  14.3272  14.3423  14.3563  14.3693  14.3813  14.3923
 CONDUCTIVITY      2.1505   0.0000   0.0000   0.0000   0.0000   0.0000   0.0000   0.0000
 PRANDTL NUMBER    0.6921   2.3304   2.3307   2.3311   2.3315   2.3320   2.3326   2.3331

 MASS FRACTIONS

 *H2              1.00000  1.00000  1.00000  1.00000  1.00000  1.00000  1.00000  1.00000

  * THERMODYNAMIC PROPERTIES FITTED TO 20000.K

 NOTE. WEIGHT FRACTION OF FUEL IN TOTAL FUELS AND OF OXIDANT IN TOTAL OXIDANTS









               THERMODYNAMIC EQUILIBRIUM PROPERTIES AT ASSIGNED

                           TEMPERATURE AND PRESSURE

 CASE =                

             REACTANT                    WT FRACTION      ENERGY      TEMP
                                          (SEE NOTE)     KJ/KG-MOL      K  
 FUEL        H2                           1.0000000         0.000      0.000
 OXIDANT     H2                           1.0000000         0.000      0.000

 O/F=    1.00000  %FUEL= 50.000000  R,EQ.RATIO= 0.000000  PHI,EQ.RATIO=-1.000000

 THERMODYNAMIC PROPERTIES

 P, BAR           0.04900  0.04900  0.04900  0.04900  0.04900  0.04900  0.04900  0.04900
 T, K              335.00   340.00   345.00   350.00   355.00   360.00   365.00   370.00
 RHO, KG/CU M    3.5464-3 3.4942-3 3.4436-3 3.3944-3 3.3466-3 3.3001-3 3.2549-3 3.2109-3
 H, KJ/KG          529.10   601.14   673.22   745.34   817.50   889.70   961.93  1034.19
 U, KJ/KG         -852.60  -801.19  -749.73  -698.23  -646.69  -595.11  -543.51  -491.87
 G, KJ/KG        -25915.2 -26310.4 -26706.7 -27104.0 -27502.4 -27901.7 -28302.1 -28703.5
 S, KJ/(KG)(K)    78.9381  79.1516  79.3620  79.5696  79.7743  79.9762  80.1755  80.3721

 M, (1/n)           2.016    2.016    2.016    2.016    2.016    2.016    2.016    2.016
 (dLV/dLP)t      -0.99999 -0.99999 -0.99999 -0.99999 -0.99999 -0.99999 -0.99999 -0.99999
 (dLV/dLT)p        1.0000   1.0000   1.0000   1.0000   1.0000   1.0000   1.0000   1.0000
 Cp, KJ/(KG)(K)   14.4026  14.4120  14.4207  14.4286  14.4360  14.4427  14.4489  14.4545
 GAMMAs            1.4013   1.4009   1.4006   1.4003   1.4000   1.3997   1.3995   1.3993
 SON VEL,M/SEC     1391.5   1401.6   1411.7   1421.8   1431.7   1441.6   1451.5   1461.3

 TRANSPORT PROPERTIES (GASES ONLY)
   CONDUCTIVITY IN UNITS OF MILLIWATTS/(CM)(K)

 VISC,MILLIPOISE  0.00002  0.00016  0.00132  0.00967  0.04504  0.08666  0.09994  0.10297

  WITH EQUILIBRIUM REACTIONS

 Cp, KJ/(KG)(K)   14.4026  14.4120  14.4207  14.4286  14.4360  14.4427  14.4489  14.4545
 CONDUCTIVITY      0.0001   0.0010   0.0082   0.0641   0.4072   1.3507   1.9898   2.1505
 PRANDTL NUMBER    2.3334   2.3316   2.3128   2.1752   1.5965   0.9266   0.7257   0.6921

  WITH FROZEN REACTIONS

 Cp, KJ/(KG)(K)   14.4026  14.4120  14.4207  14.4286  14.4360  14.4427  14.4489  14.4545
 CONDUCTIVITY      0.0001   0.0010   0.0082   0.0641   0.4072   1.3507   1.9898   2.1505
 PRANDTL NUMBER    2.3334   2.3316   2.3128   2.1752   1.5965   0.9266   0.7257   0.6921

 MASS FRACTIONS

 *H2              1.00000  1.00000  1.00000  1.00000  1.00000  1.00000  1.00000  1.00000

  * THERMODYNAMIC PROPERTIES FITTED TO 20000.K

 NOTE. WEIGHT FRACTION OF FUEL IN TOTAL FUELS AND OF OXIDANT IN TOTAL OXIDANTS









               THERMODYNAMIC EQUILIBRIUM PROPERTIES AT ASSIGNED

                           TEMPERATURE AND PRESSURE

 CASE =                

             REACTANT                    WT FRACTION      ENERGY      TEMP
                                          (SEE NOTE)     KJ/KG-MOL      K  
 FUEL        H2                           1.0000000         0.000      0.000
 OXIDANT     H2                           1.0000000         0.000      0.000

 O/F=    1.00000  %FUEL= 50.000000  R,EQ.RATIO= 0.000000  PHI,EQ.RATIO=-1.000000

 THERMODYNAMIC PROPERTIES

 P, BAR           0.05400  0.05400  0.05400  0.05400  0.05400  0.05400  0.05400  0.05400
 T, K              300.00   305.00   310.00   315.00   320.00   325.00   330.00   335.00
 RHO, KG/CU M    4.3642-3 4.2926-3 4.2234-3 4.1564-3 4.0914-3 4.0285-3 3.9674-3 3.9082-3
 H, KJ/KG          26.469   98.065   169.74   241.49   313.30   385.18   457.11   529.10
 U, KJ/KG        -1210.88 -1159.90 -1108.85 -1057.73 -1006.53  -955.28  -903.97  -852.60
 G, KJ/KG        -23059.4 -23444.7 -23831.3 -24218.9 -24607.8 -24997.7 -25388.8 -25780.9
 S, KJ/(KG)(K)    76.9529  77.1895  77.4226  77.6521  77.8783  78.1012  78.3209  78.5374

 M, (1/n)           2.016    2.016    2.016    2.016    2.016    2.016    2.016    2.016
 (dLV/dLP)t      -0.99999 -0.99999 -0.99999 -0.99999 -0.99999 -0.99999 -0.99999 -0.99999
 (dLV/dLT)p        1.0000   1.0000   1.0000   1.0000   1.0000   1.0000   1.0000   1.0000
 Cp, KJ/(KG)(K)   14.3109  14.3272  14.3423  14.3563  14.3693  14.3813  14.3923  14.4026
 GAMMAs            1.4049   1.4043   1.4037   1.4031   1.4026   1.4021   1.4017   1.4013
 SON VEL,M/SEC     1318.5   1329.1   1339.7   1350.2   1360.6   1370.9   1381.2   1391.5

 TRANSPORT PROPERTIES (GASES ONLY)
   CONDUCTIVITY IN UNITS OF MILLIWATTS/(CM)(K)

 VISC,MILLIPOISE  0.00000  0.00000  0.00000  0.00000  0.00000  0.00000  0.00000  0.00002

  WITH EQUILIBRIUM REACTIONS

 Cp, KJ/(KG)(K)   14.3109  14.3272  14.3423  14.3563  14.3693  14.3813  14.3923  14.4026
 CONDUCTIVITY      0.0000   0.0000   0.0000   0.0000   0.0000   0.0000   0.0000   0.0001
 PRANDTL NUMBER    2.3304   2.3307   2.3311   2.3315   2.3320   2.3326   2.3331   2.3334

  WITH FROZEN REACTIONS

 Cp, KJ/(KG)(K)   14.3109  14.3272  14.3423  14.3563  14.3693  14.3813  14.3923  14.4026
 CONDUCTIVITY      0.0000   0.0000   0.0000   0.0000   0.0000   0.0000   0.0000   0.0001
 PRANDTL NUMBER    2.3304   2.3307   2.3311   2.3315   2.3320   2.3326   2.3331   2.3334

 MASS FRACTIONS

 *H2              1.00000  1.00000  1.00000  1.00000  1.00000  1.00000  1.00000  1.00000

  * THERMODYNAMIC PROPERTIES FITTED TO 20000.K

 NOTE. WEIGHT FRACTION OF FUEL IN TOTAL FUELS AND OF OXIDANT IN TOTAL OXIDANTS









               THERMODYNAMIC EQUILIBRIUM PROPERTIES AT ASSIGNED

                           TEMPERATURE AND PRESSURE

 CASE =                

             REACTANT                    WT FRACTION      ENERGY      TEMP
                                          (SEE NOTE)     KJ/KG-MOL      K  
 FUEL        H2                           1.0000000         0.000      0.000
 OXIDANT     H2                           1.0000000         0.000      0.000

 O/F=    1.00000  %FUEL= 50.000000  R,EQ.RATIO= 0.000000  PHI,EQ.RATIO=-1.000000

 THERMODYNAMIC PROPERTIES

 P, BAR           0.05400  0.05400  0.05400  0.05400  0.05400  0.05400  0.05400  0.06000
 T, K              340.00   345.00   350.00   355.00   360.00   365.00   370.00   300.00
 RHO, KG/CU M    3.8508-3 3.7949-3 3.7407-3 3.6880-3 3.6368-3 3.5870-3 3.5385-3 4.8491-3
 H, KJ/KG          601.14   673.22   745.34   817.50   889.70   961.93  1034.19   26.469
 U, KJ/KG         -801.19  -749.73  -698.23  -646.69  -595.11  -543.51  -491.87 -1210.88
 G, KJ/KG        -26174.1 -26568.4 -26963.7 -27360.1 -27757.5 -28155.9 -28555.2 -22929.0
 S, KJ/(KG)(K)    78.7508  78.9613  79.1688  79.3735  79.5755  79.7747  79.9714  76.5183

 M, (1/n)           2.016    2.016    2.016    2.016    2.016    2.016    2.016    2.016
 (dLV/dLP)t      -0.99999 -0.99999 -0.99999 -0.99999 -0.99999 -0.99999 -0.99999 -0.99999
 (dLV/dLT)p        1.0000   1.0000   1.0000   1.0000   1.0000   1.0000   1.0000   1.0000
 Cp, KJ/(KG)(K)   14.4120  14.4207  14.4286  14.4360  14.4427  14.4489  14.4545  14.3109
 GAMMAs            1.4009   1.4006   1.4003   1.4000   1.3997   1.3995   1.3993   1.4049
 SON VEL,M/SEC     1401.6   1411.7   1421.8   1431.7   1441.6   1451.5   1461.3   1318.5

 TRANSPORT PROPERTIES (GASES ONLY)
   CONDUCTIVITY IN UNITS OF MILLIWATTS/(CM)(K)

 VISC,MILLIPOISE  0.00016  0.00132  0.00967  0.04504  0.08666  0.09994  0.10297  0.00000

  WITH EQUILIBRIUM REACTIONS

 Cp, KJ/(KG)(K)   14.4120  14.4207  14.4286  14.4360  14.4427  14.4489  14.4545  14.3109
 CONDUCTIVITY      0.0010   0.0082   0.0641   0.4072   1.3507   1.9898   2.1505   0.0000
 PRANDTL NUMBER    2.3316   2.3128   2.1752   1.5965   0.9266   0.7257   0.6921   2.3304

  WITH FROZEN REACTIONS

 Cp, KJ/(KG)(K)   14.4120  14.4207  14.4286  14.4360  14.4427  14.4489  14.4545  14.3109
 CONDUCTIVITY      0.0010   0.0082   0.0641   0.4072   1.3507   1.9898   2.1505   0.0000
 PRANDTL NUMBER    2.3316   2.3128   2.1752   1.5965   0.9266   0.7257   0.6921   2.3304

 MASS FRACTIONS

 *H2              1.00000  1.00000  1.00000  1.00000  1.00000  1.00000  1.00000  1.00000

  * THERMODYNAMIC PROPERTIES FITTED TO 20000.K

 NOTE. WEIGHT FRACTION OF FUEL IN TOTAL FUELS AND OF OXIDANT IN TOTAL OXIDANTS









               THERMODYNAMIC EQUILIBRIUM PROPERTIES AT ASSIGNED

                           TEMPERATURE AND PRESSURE

 CASE =                

             REACTANT                    WT FRACTION      ENERGY      TEMP
                                          (SEE NOTE)     KJ/KG-MOL      K  
 FUEL        H2                           1.0000000         0.000      0.000
 OXIDANT     H2                           1.0000000         0.000      0.000

 O/F=    1.00000  %FUEL= 50.000000  R,EQ.RATIO= 0.000000  PHI,EQ.RATIO=-1.000000

 THERMODYNAMIC PROPERTIES

 P, BAR           0.06000  0.06000  0.06000  0.06000  0.06000  0.06000  0.06000  0.06000
 T, K              305.00   310.00   315.00   320.00   325.00   330.00   335.00   340.00
 RHO, KG/CU M    4.7696-3 4.6927-3 4.6182-3 4.5460-3 4.4761-3 4.4083-3 4.3425-3 4.2786-3
 H, KJ/KG          98.065   169.74   241.49   313.30   385.18   457.11   529.10   601.14
 U, KJ/KG        -1159.90 -1108.85 -1057.73 -1006.53  -955.28  -903.97  -852.60  -801.19
 G, KJ/KG        -23312.2 -23696.5 -24082.1 -24468.7 -24856.5 -25245.4 -25635.3 -26026.4
 S, KJ/(KG)(K)    76.7549  76.9880  77.2176  77.4438  77.6666  77.8863  78.1028  78.3162

 M, (1/n)           2.016    2.016    2.016    2.016    2.016    2.016    2.016    2.016
 (dLV/dLP)t      -0.99999 -0.99999 -0.99999 -0.99999 -0.99999 -0.99999 -0.99999 -0.99999
 (dLV/dLT)p        1.0000   1.0000   1.0000   1.0000   1.0000   1.0000   1.0000   1.0000
 Cp, KJ/(KG)(K)   14.3272  14.3423  14.3563  14.3693  14.3813  14.3923  14.4026  14.4120
 GAMMAs            1.4043   1.4037   1.4031   1.4026   1.4021   1.4017   1.4013   1.4009
 SON VEL,M/SEC     1329.1   1339.7   1350.2   1360.6   1370.9   1381.2   1391.5   1401.6

 TRANSPORT PROPERTIES (GASES ONLY)
   CONDUCTIVITY IN UNITS OF MILLIWATTS/(CM)(K)

 VISC,MILLIPOISE  0.00000  0.00000  0.00000  0.00000  0.00000  0.00000  0.00002  0.00016

  WITH EQUILIBRIUM REACTIONS

 Cp, KJ/(KG)(K)   14.3272  14.3423  14.3563  14.3693  14.3813  14.3923  14.4026  14.4120
 CONDUCTIVITY      0.0000   0.0000   0.0000   0.0000   0.0000   0.0000   0.0001   0.0010
 PRANDTL NUMBER    2.3307   2.3311   2.3315   2.3320   2.3326   2.3331   2.3334   2.3316

  WITH FROZEN REACTIONS

 Cp, KJ/(KG)(K)   14.3272  14.3423  14.3563  14.3693  14.3813  14.3923  14.4026  14.4120
 CONDUCTIVITY      0.0000   0.0000   0.0000   0.0000   0.0000   0.0000   0.0001   0.0010
 PRANDTL NUMBER    2.3307   2.3311   2.3315   2.3320   2.3326   2.3331   2.3334   2.3316

 MASS FRACTIONS

 *H2              1.00000  1.00000  1.00000  1.00000  1.00000  1.00000  1.00000  1.00000

  * THERMODYNAMIC PROPERTIES FITTED TO 20000.K

 NOTE. WEIGHT FRACTION OF FUEL IN TOTAL FUELS AND OF OXIDANT IN TOTAL OXIDANTS









               THERMODYNAMIC EQUILIBRIUM PROPERTIES AT ASSIGNED

                           TEMPERATURE AND PRESSURE

 CASE =                

             REACTANT                    WT FRACTION      ENERGY      TEMP
                                          (SEE NOTE)     KJ/KG-MOL      K  
 FUEL        H2                           1.0000000         0.000      0.000
 OXIDANT     H2                           1.0000000         0.000      0.000

 O/F=    1.00000  %FUEL= 50.000000  R,EQ.RATIO= 0.000000  PHI,EQ.RATIO=-1.000000

 THERMODYNAMIC PROPERTIES

 P, BAR           0.06000  0.06000  0.06000  0.06000  0.06000  0.06000  0.06700  0.06700
 T, K              345.00   350.00   355.00   360.00   365.00   370.00   300.00   305.00
 RHO, KG/CU M    4.2166-3 4.1564-3 4.0978-3 4.0409-3 3.9856-3 3.9317-3 5.4148-3 5.3261-3
 H, KJ/KG          673.22   745.34   817.50   889.70   961.93  1034.19   26.469   98.065
 U, KJ/KG         -749.73  -698.23  -646.69  -595.11  -543.51  -491.87 -1210.88 -1159.90
 G, KJ/KG        -26418.5 -26811.6 -27205.8 -27601.0 -27997.2 -28394.4 -22792.5 -23173.4
 S, KJ/(KG)(K)    78.5267  78.7343  78.9390  79.1409  79.3402  79.5368  76.0632  76.2998

 M, (1/n)           2.016    2.016    2.016    2.016    2.016    2.016    2.016    2.016
 (dLV/dLP)t      -0.99999 -0.99999 -0.99999 -0.99999 -0.99999 -0.99999 -0.99999 -0.99999
 (dLV/dLT)p        1.0000   1.0000   1.0000   1.0000   1.0000   1.0000   1.0000   1.0000
 Cp, KJ/(KG)(K)   14.4207  14.4286  14.4360  14.4427  14.4489  14.4545  14.3109  14.3272
 GAMMAs            1.4006   1.4003   1.4000   1.3997   1.3995   1.3993   1.4049   1.4043
 SON VEL,M/SEC     1411.7   1421.8   1431.7   1441.6   1451.5   1461.3   1318.5   1329.1

 TRANSPORT PROPERTIES (GASES ONLY)
   CONDUCTIVITY IN UNITS OF MILLIWATTS/(CM)(K)

 VISC,MILLIPOISE  0.00132  0.00967  0.04504  0.08666  0.09994  0.10297  0.00000  0.00000

  WITH EQUILIBRIUM REACTIONS

 Cp, KJ/(KG)(K)   14.4207  14.4286  14.4360  14.4427  14.4489  14.4545  14.3109  14.3272
 CONDUCTIVITY      0.0082   0.0641   0.4072   1.3507   1.9898   2.1505   0.0000   0.0000
 PRANDTL NUMBER    2.3128   2.1752   1.5965   0.9266   0.7257   0.6921   2.3304   2.3307

  WITH FROZEN REACTIONS

 Cp, KJ/(KG)(K)   14.4207  14.4286  14.4360  14.4427  14.4489  14.4545  14.3109  14.3272
 CONDUCTIVITY      0.0082   0.0641   0.4072   1.3507   1.9898   2.1505   0.0000   0.0000
 PRANDTL NUMBER    2.3128   2.1752   1.5965   0.9266   0.7257   0.6921   2.3304   2.3307

 MASS FRACTIONS

 *H2              1.00000  1.00000  1.00000  1.00000  1.00000  1.00000  1.00000  1.00000

  * THERMODYNAMIC PROPERTIES FITTED TO 20000.K

 NOTE. WEIGHT FRACTION OF FUEL IN TOTAL FUELS AND OF OXIDANT IN TOTAL OXIDANTS









               THERMODYNAMIC EQUILIBRIUM PROPERTIES AT ASSIGNED

                           TEMPERATURE AND PRESSURE

 CASE =                

             REACTANT                    WT FRACTION      ENERGY      TEMP
                                          (SEE NOTE)     KJ/KG-MOL      K  
 FUEL        H2                           1.0000000         0.000      0.000
 OXIDANT     H2                           1.0000000         0.000      0.000

 O/F=    1.00000  %FUEL= 50.000000  R,EQ.RATIO= 0.000000  PHI,EQ.RATIO=-1.000000

 THERMODYNAMIC PROPERTIES

 P, BAR           0.06700  0.06700  0.06700  0.06700  0.06700  0.06700  0.06700  0.06700
 T, K              310.00   315.00   320.00   325.00   330.00   335.00   340.00   345.00
 RHO, KG/CU M    5.2401-3 5.1570-3 5.0764-3 4.9983-3 4.9226-3 4.8491-3 4.7778-3 4.7085-3
 H, KJ/KG          169.74   241.49   313.30   385.18   457.11   529.10   601.14   673.22
 U, KJ/KG        -1108.85 -1057.73 -1006.53  -955.28  -903.97  -852.60  -801.19  -749.73
 G, KJ/KG        -23555.4 -23938.7 -24323.1 -24708.6 -25095.2 -25482.9 -25871.6 -26261.5
 S, KJ/(KG)(K)    76.5329  76.7624  76.9886  77.2115  77.4312  77.6477  77.8611  78.0716

 M, (1/n)           2.016    2.016    2.016    2.016    2.016    2.016    2.016    2.016
 (dLV/dLP)t      -0.99999 -0.99999 -0.99999 -0.99999 -0.99999 -0.99999 -0.99999 -0.99999
 (dLV/dLT)p        1.0000   1.0000   1.0000   1.0000   1.0000   1.0000   1.0000   1.0000
 Cp, KJ/(KG)(K)   14.3423  14.3563  14.3693  14.3813  14.3923  14.4026  14.4120  14.4207
 GAMMAs            1.4037   1.4031   1.4026   1.4021   1.4017   1.4013   1.4009   1.4006
 SON VEL,M/SEC     1339.7   1350.2   1360.6   1370.9   1381.2   1391.5   1401.6   1411.7

 TRANSPORT PROPERTIES (GASES ONLY)
   CONDUCTIVITY IN UNITS OF MILLIWATTS/(CM)(K)

 VISC,MILLIPOISE  0.00000  0.00000  0.00000  0.00000  0.00000  0.00002  0.00016  0.00132

  WITH EQUILIBRIUM REACTIONS

 Cp, KJ/(KG)(K)   14.3423  14.3563  14.3693  14.3813  14.3923  14.4026  14.4120  14.4207
 CONDUCTIVITY      0.0000   0.0000   0.0000   0.0000   0.0000   0.0001   0.0010   0.0082
 PRANDTL NUMBER    2.3311   2.3315   2.3320   2.3326   2.3331   2.3334   2.3316   2.3128

  WITH FROZEN REACTIONS

 Cp, KJ/(KG)(K)   14.3423  14.3563  14.3693  14.3813  14.3923  14.4026  14.4120  14.4207
 CONDUCTIVITY      0.0000   0.0000   0.0000   0.0000   0.0000   0.0001   0.0010   0.0082
 PRANDTL NUMBER    2.3311   2.3315   2.3320   2.3326   2.3331   2.3334   2.3316   2.3128

 MASS FRACTIONS

 *H2              1.00000  1.00000  1.00000  1.00000  1.00000  1.00000  1.00000  1.00000

  * THERMODYNAMIC PROPERTIES FITTED TO 20000.K

 NOTE. WEIGHT FRACTION OF FUEL IN TOTAL FUELS AND OF OXIDANT IN TOTAL OXIDANTS









               THERMODYNAMIC EQUILIBRIUM PROPERTIES AT ASSIGNED

                           TEMPERATURE AND PRESSURE

 CASE =                

             REACTANT                    WT FRACTION      ENERGY      TEMP
                                          (SEE NOTE)     KJ/KG-MOL      K  
 FUEL        H2                           1.0000000         0.000      0.000
 OXIDANT     H2                           1.0000000         0.000      0.000

 O/F=    1.00000  %FUEL= 50.000000  R,EQ.RATIO= 0.000000  PHI,EQ.RATIO=-1.000000

 THERMODYNAMIC PROPERTIES

 P, BAR           0.06700  0.06700  0.06700  0.06700  0.06700  0.07400  0.07400  0.07400
 T, K              350.00   355.00   360.00   365.00   370.00   300.00   305.00   310.00
 RHO, KG/CU M    4.6413-3 4.5759-3 4.5124-3 4.4505-3 4.3904-3 5.9805-3 5.8825-3 5.7876-3
 H, KJ/KG          745.34   817.50   889.70   961.93  1034.19   26.469   98.065   169.74
 U, KJ/KG         -698.23  -646.69  -595.11  -543.51  -491.87 -1210.88 -1159.90 -1108.85
 G, KJ/KG        -26652.4 -27044.3 -27437.2 -27831.1 -28226.0 -22669.5 -23048.4 -23428.4
 S, KJ/(KG)(K)    78.2791  78.4838  78.6858  78.8851  79.0817  75.6533  75.8899  76.1230

 M, (1/n)           2.016    2.016    2.016    2.016    2.016    2.016    2.016    2.016
 (dLV/dLP)t      -0.99999 -0.99999 -0.99999 -0.99999 -0.99999 -0.99999 -0.99999 -0.99999
 (dLV/dLT)p        1.0000   1.0000   1.0000   1.0000   1.0000   1.0000   1.0000   1.0000
 Cp, KJ/(KG)(K)   14.4286  14.4360  14.4427  14.4489  14.4545  14.3109  14.3272  14.3423
 GAMMAs            1.4003   1.4000   1.3997   1.3995   1.3993   1.4049   1.4043   1.4037
 SON VEL,M/SEC     1421.8   1431.7   1441.6   1451.5   1461.3   1318.5   1329.1   1339.7

 TRANSPORT PROPERTIES (GASES ONLY)
   CONDUCTIVITY IN UNITS OF MILLIWATTS/(CM)(K)

 VISC,MILLIPOISE  0.00967  0.04504  0.08666  0.09994  0.10297  0.00000  0.00000  0.00000

  WITH EQUILIBRIUM REACTIONS

 Cp, KJ/(KG)(K)   14.4286  14.4360  14.4427  14.4489  14.4545  14.3109  14.3272  14.3423
 CONDUCTIVITY      0.0641   0.4072   1.3507   1.9898   2.1505   0.0000   0.0000   0.0000
 PRANDTL NUMBER    2.1752   1.5965   0.9266   0.7257   0.6921   2.3304   2.3307   2.3311

  WITH FROZEN REACTIONS

 Cp, KJ/(KG)(K)   14.4286  14.4360  14.4427  14.4489  14.4545  14.3109  14.3272  14.3423
 CONDUCTIVITY      0.0641   0.4072   1.3507   1.9898   2.1505   0.0000   0.0000   0.0000
 PRANDTL NUMBER    2.1752   1.5965   0.9266   0.7257   0.6921   2.3304   2.3307   2.3311

 MASS FRACTIONS

 *H2              1.00000  1.00000  1.00000  1.00000  1.00000  1.00000  1.00000  1.00000

  * THERMODYNAMIC PROPERTIES FITTED TO 20000.K

 NOTE. WEIGHT FRACTION OF FUEL IN TOTAL FUELS AND OF OXIDANT IN TOTAL OXIDANTS









               THERMODYNAMIC EQUILIBRIUM PROPERTIES AT ASSIGNED

                           TEMPERATURE AND PRESSURE

 CASE =                

             REACTANT                    WT FRACTION      ENERGY      TEMP
                                          (SEE NOTE)     KJ/KG-MOL      K  
 FUEL        H2                           1.0000000         0.000      0.000
 OXIDANT     H2                           1.0000000         0.000      0.000

 O/F=    1.00000  %FUEL= 50.000000  R,EQ.RATIO= 0.000000  PHI,EQ.RATIO=-1.000000

 THERMODYNAMIC PROPERTIES

 P, BAR           0.07400  0.07400  0.07400  0.07400  0.07400  0.07400  0.07400  0.07400
 T, K              315.00   320.00   325.00   330.00   335.00   340.00   345.00   350.00
 RHO, KG/CU M    5.6958-3 5.6068-3 5.5205-3 5.4369-3 5.3557-3 5.2770-3 5.2005-3 5.1262-3
 H, KJ/KG          241.49   313.30   385.18   457.11   529.10   601.14   673.22   745.34
 U, KJ/KG        -1057.73 -1006.53  -955.28  -903.97  -852.60  -801.19  -749.73  -698.23
 G, KJ/KG        -23809.6 -24191.9 -24575.4 -24959.9 -25345.6 -25732.3 -26120.1 -26508.9
 S, KJ/(KG)(K)    76.3526  76.5788  76.8016  77.0213  77.2378  77.4513  77.6617  77.8693

 M, (1/n)           2.016    2.016    2.016    2.016    2.016    2.016    2.016    2.016
 (dLV/dLP)t      -0.99999 -0.99999 -0.99999 -0.99999 -0.99999 -0.99999 -0.99999 -0.99999
 (dLV/dLT)p        1.0000   1.0000   1.0000   1.0000   1.0000   1.0000   1.0000   1.0000
 Cp, KJ/(KG)(K)   14.3563  14.3693  14.3813  14.3923  14.4026  14.4120  14.4207  14.4286
 GAMMAs            1.4031   1.4026   1.4021   1.4017   1.4013   1.4009   1.4006   1.4003
 SON VEL,M/SEC     1350.2   1360.6   1370.9   1381.2   1391.5   1401.6   1411.7   1421.8

 TRANSPORT PROPERTIES (GASES ONLY)
   CONDUCTIVITY IN UNITS OF MILLIWATTS/(CM)(K)

 VISC,MILLIPOISE  0.00000  0.00000  0.00000  0.00000  0.00002  0.00016  0.00132  0.00967

  WITH EQUILIBRIUM REACTIONS

 Cp, KJ/(KG)(K)   14.3563  14.3693  14.3813  14.3923  14.4026  14.4120  14.4207  14.4286
 CONDUCTIVITY      0.0000   0.0000   0.0000   0.0000   0.0001   0.0010   0.0082   0.0641
 PRANDTL NUMBER    2.3315   2.3320   2.3326   2.3331   2.3334   2.3316   2.3128   2.1752

  WITH FROZEN REACTIONS

 Cp, KJ/(KG)(K)   14.3563  14.3693  14.3813  14.3923  14.4026  14.4120  14.4207  14.4286
 CONDUCTIVITY      0.0000   0.0000   0.0000   0.0000   0.0001   0.0010   0.0082   0.0641
 PRANDTL NUMBER    2.3315   2.3320   2.3326   2.3331   2.3334   2.3316   2.3128   2.1752

 MASS FRACTIONS

 *H2              1.00000  1.00000  1.00000  1.00000  1.00000  1.00000  1.00000  1.00000

  * THERMODYNAMIC PROPERTIES FITTED TO 20000.K

 NOTE. WEIGHT FRACTION OF FUEL IN TOTAL FUELS AND OF OXIDANT IN TOTAL OXIDANTS









               THERMODYNAMIC EQUILIBRIUM PROPERTIES AT ASSIGNED

                           TEMPERATURE AND PRESSURE

 CASE =                

             REACTANT                    WT FRACTION      ENERGY      TEMP
                                          (SEE NOTE)     KJ/KG-MOL      K  
 FUEL        H2                           1.0000000         0.000      0.000
 OXIDANT     H2                           1.0000000         0.000      0.000

 O/F=    1.00000  %FUEL= 50.000000  R,EQ.RATIO= 0.000000  PHI,EQ.RATIO=-1.000000

 THERMODYNAMIC PROPERTIES

 P, BAR           0.07400  0.07400  0.07400  0.07400  0.08250  0.08250  0.08250  0.08250
 T, K              355.00   360.00   365.00   370.00   300.00   305.00   310.00   315.00
 RHO, KG/CU M    5.0540-3 4.9838-3 4.9155-3 4.8491-3 6.6675-3 6.5582-3 6.4524-3 6.3500-3
 H, KJ/KG          817.50   889.70   961.93  1034.19   26.469   98.065   169.74   241.49
 U, KJ/KG         -646.69  -595.11  -543.51  -491.87 -1210.88 -1159.90 -1108.85 -1057.73
 G, KJ/KG        -26898.8 -27289.6 -27681.5 -28074.4 -22535.0 -22911.6 -23289.4 -23668.3
 S, KJ/(KG)(K)    78.0740  78.2759  78.4752  78.6718  75.2049  75.4415  75.6745  75.9041

 M, (1/n)           2.016    2.016    2.016    2.016    2.016    2.016    2.016    2.016
 (dLV/dLP)t      -0.99999 -0.99999 -0.99999 -0.99999 -0.99999 -0.99999 -0.99999 -0.99999
 (dLV/dLT)p        1.0000   1.0000   1.0000   1.0000   1.0000   1.0000   1.0000   1.0000
 Cp, KJ/(KG)(K)   14.4360  14.4427  14.4489  14.4545  14.3109  14.3272  14.3423  14.3563
 GAMMAs            1.4000   1.3997   1.3995   1.3993   1.4049   1.4043   1.4037   1.4031
 SON VEL,M/SEC     1431.7   1441.6   1451.5   1461.3   1318.5   1329.1   1339.7   1350.2

 TRANSPORT PROPERTIES (GASES ONLY)
   CONDUCTIVITY IN UNITS OF MILLIWATTS/(CM)(K)

 VISC,MILLIPOISE  0.04504  0.08666  0.09994  0.10297  0.00000  0.00000  0.00000  0.00000

  WITH EQUILIBRIUM REACTIONS

 Cp, KJ/(KG)(K)   14.4360  14.4427  14.4489  14.4545  14.3109  14.3272  14.3423  14.3563
 CONDUCTIVITY      0.4072   1.3507   1.9898   2.1505   0.0000   0.0000   0.0000   0.0000
 PRANDTL NUMBER    1.5965   0.9266   0.7257   0.6921   2.3304   2.3307   2.3311   2.3315

  WITH FROZEN REACTIONS

 Cp, KJ/(KG)(K)   14.4360  14.4427  14.4489  14.4545  14.3109  14.3272  14.3423  14.3563
 CONDUCTIVITY      0.4072   1.3507   1.9898   2.1505   0.0000   0.0000   0.0000   0.0000
 PRANDTL NUMBER    1.5965   0.9266   0.7257   0.6921   2.3304   2.3307   2.3311   2.3315

 MASS FRACTIONS

 *H2              1.00000  1.00000  1.00000  1.00000  1.00000  1.00000  1.00000  1.00000

  * THERMODYNAMIC PROPERTIES FITTED TO 20000.K

 NOTE. WEIGHT FRACTION OF FUEL IN TOTAL FUELS AND OF OXIDANT IN TOTAL OXIDANTS









               THERMODYNAMIC EQUILIBRIUM PROPERTIES AT ASSIGNED

                           TEMPERATURE AND PRESSURE

 CASE =                

             REACTANT                    WT FRACTION      ENERGY      TEMP
                                          (SEE NOTE)     KJ/KG-MOL      K  
 FUEL        H2                           1.0000000         0.000      0.000
 OXIDANT     H2                           1.0000000         0.000      0.000

 O/F=    1.00000  %FUEL= 50.000000  R,EQ.RATIO= 0.000000  PHI,EQ.RATIO=-1.000000

 THERMODYNAMIC PROPERTIES

 P, BAR           0.08250  0.08250  0.08250  0.08250  0.08250  0.08250  0.08250  0.08250
 T, K              320.00   325.00   330.00   335.00   340.00   345.00   350.00   355.00
 RHO, KG/CU M    6.2508-3 6.1546-3 6.0614-3 5.9709-3 5.8831-3 5.7978-3 5.7150-3 5.6345-3
 H, KJ/KG          313.30   385.18   457.11   529.10   601.14   673.22   745.34   817.50
 U, KJ/KG        -1006.53  -955.28  -903.97  -852.60  -801.19  -749.73  -698.23  -646.69
 G, KJ/KG        -24048.4 -24429.6 -24811.9 -25195.3 -25579.8 -25965.4 -26351.9 -26739.6
 S, KJ/(KG)(K)    76.1303  76.3532  76.5728  76.7893  77.0028  77.2132  77.4208  77.6255

 M, (1/n)           2.016    2.016    2.016    2.016    2.016    2.016    2.016    2.016
 (dLV/dLP)t      -0.99999 -0.99999 -0.99999 -0.99999 -0.99999 -0.99999 -0.99999 -0.99999
 (dLV/dLT)p        1.0000   1.0000   1.0000   1.0000   1.0000   1.0000   1.0000   1.0000
 Cp, KJ/(KG)(K)   14.3693  14.3813  14.3923  14.4026  14.4120  14.4207  14.4286  14.4360
 GAMMAs            1.4026   1.4021   1.4017   1.4013   1.4009   1.4006   1.4003   1.4000
 SON VEL,M/SEC     1360.6   1370.9   1381.2   1391.5   1401.6   1411.7   1421.8   1431.7

 TRANSPORT PROPERTIES (GASES ONLY)
   CONDUCTIVITY IN UNITS OF MILLIWATTS/(CM)(K)

 VISC,MILLIPOISE  0.00000  0.00000  0.00000  0.00002  0.00016  0.00132  0.00967  0.04504

  WITH EQUILIBRIUM REACTIONS

 Cp, KJ/(KG)(K)   14.3693  14.3813  14.3923  14.4026  14.4120  14.4207  14.4286  14.4360
 CONDUCTIVITY      0.0000   0.0000   0.0000   0.0001   0.0010   0.0082   0.0641   0.4072
 PRANDTL NUMBER    2.3320   2.3326   2.3331   2.3334   2.3316   2.3128   2.1752   1.5965

  WITH FROZEN REACTIONS

 Cp, KJ/(KG)(K)   14.3693  14.3813  14.3923  14.4026  14.4120  14.4207  14.4286  14.4360
 CONDUCTIVITY      0.0000   0.0000   0.0000   0.0001   0.0010   0.0082   0.0641   0.4072
 PRANDTL NUMBER    2.3320   2.3326   2.3331   2.3334   2.3316   2.3128   2.1752   1.5965

 MASS FRACTIONS

 *H2              1.00000  1.00000  1.00000  1.00000  1.00000  1.00000  1.00000  1.00000

  * THERMODYNAMIC PROPERTIES FITTED TO 20000.K

 NOTE. WEIGHT FRACTION OF FUEL IN TOTAL FUELS AND OF OXIDANT IN TOTAL OXIDANTS









               THERMODYNAMIC EQUILIBRIUM PROPERTIES AT ASSIGNED

                           TEMPERATURE AND PRESSURE

 CASE =                

             REACTANT                    WT FRACTION      ENERGY      TEMP
                                          (SEE NOTE)     KJ/KG-MOL      K  
 FUEL        H2                           1.0000000         0.000      0.000
 OXIDANT     H2                           1.0000000         0.000      0.000

 O/F=    1.00000  %FUEL= 50.000000  R,EQ.RATIO= 0.000000  PHI,EQ.RATIO=-1.000000

 THERMODYNAMIC PROPERTIES

 P, BAR           0.08250  0.08250  0.08250  0.09100  0.09100  0.09100  0.09100  0.09100
 T, K              360.00   365.00   370.00   300.00   305.00   310.00   315.00   320.00
 RHO, KG/CU M    5.5563-3 5.4801-3 5.4061-3 7.3544-3 7.2339-3 7.1172-3 7.0042-3 6.8948-3
 H, KJ/KG          889.70   961.93  1034.19   26.469   98.065   169.74   241.49   313.30
 U, KJ/KG         -595.11  -543.51  -491.87 -1210.88 -1159.90 -1108.85 -1057.73 -1006.53
 G, KJ/KG        -27128.2 -27517.8 -27908.5 -22413.7 -22788.2 -23164.0 -23540.9 -23919.0
 S, KJ/(KG)(K)    77.8275  78.0267  78.2233  74.8004  75.0370  75.2701  75.4997  75.7258

 M, (1/n)           2.016    2.016    2.016    2.016    2.016    2.016    2.016    2.016
 (dLV/dLP)t      -0.99999 -0.99999 -0.99999 -0.99999 -0.99999 -0.99999 -0.99999 -0.99999
 (dLV/dLT)p        1.0000   1.0000   1.0000   1.0000   1.0000   1.0000   1.0000   1.0000
 Cp, KJ/(KG)(K)   14.4427  14.4489  14.4545  14.3109  14.3272  14.3423  14.3563  14.3693
 GAMMAs            1.3997   1.3995   1.3993   1.4049   1.4043   1.4037   1.4031   1.4026
 SON VEL,M/SEC     1441.6   1451.5   1461.3   1318.5   1329.1   1339.7   1350.2   1360.6

 TRANSPORT PROPERTIES (GASES ONLY)
   CONDUCTIVITY IN UNITS OF MILLIWATTS/(CM)(K)

 VISC,MILLIPOISE  0.08666  0.09994  0.10297  0.00000  0.00000  0.00000  0.00000  0.00000

  WITH EQUILIBRIUM REACTIONS

 Cp, KJ/(KG)(K)   14.4427  14.4489  14.4545  14.3109  14.3272  14.3423  14.3563  14.3693
 CONDUCTIVITY      1.3507   1.9898   2.1505   0.0000   0.0000   0.0000   0.0000   0.0000
 PRANDTL NUMBER    0.9266   0.7257   0.6921   2.3304   2.3307   2.3311   2.3315   2.3320

  WITH FROZEN REACTIONS

 Cp, KJ/(KG)(K)   14.4427  14.4489  14.4545  14.3109  14.3272  14.3423  14.3563  14.3693
 CONDUCTIVITY      1.3507   1.9898   2.1505   0.0000   0.0000   0.0000   0.0000   0.0000
 PRANDTL NUMBER    0.9266   0.7257   0.6921   2.3304   2.3307   2.3311   2.3315   2.3320

 MASS FRACTIONS

 *H2              1.00000  1.00000  1.00000  1.00000  1.00000  1.00000  1.00000  1.00000

  * THERMODYNAMIC PROPERTIES FITTED TO 20000.K

 NOTE. WEIGHT FRACTION OF FUEL IN TOTAL FUELS AND OF OXIDANT IN TOTAL OXIDANTS









               THERMODYNAMIC EQUILIBRIUM PROPERTIES AT ASSIGNED

                           TEMPERATURE AND PRESSURE

 CASE =                

             REACTANT                    WT FRACTION      ENERGY      TEMP
                                          (SEE NOTE)     KJ/KG-MOL      K  
 FUEL        H2                           1.0000000         0.000      0.000
 OXIDANT     H2                           1.0000000         0.000      0.000

 O/F=    1.00000  %FUEL= 50.000000  R,EQ.RATIO= 0.000000  PHI,EQ.RATIO=-1.000000

 THERMODYNAMIC PROPERTIES

 P, BAR           0.09100  0.09100  0.09100  0.09100  0.09100  0.09100  0.09100  0.09100
 T, K              325.00   330.00   335.00   340.00   345.00   350.00   355.00   360.00
 RHO, KG/CU M    6.7887-3 6.6859-3 6.5861-3 6.4892-3 6.3952-3 6.3038-3 6.2150-3 6.1287-3
 H, KJ/KG          385.18   457.11   529.10   601.14   673.22   745.34   817.50   889.70
 U, KJ/KG         -955.28  -903.97  -852.60  -801.19  -749.73  -698.23  -646.69  -595.11
 G, KJ/KG        -24298.2 -24678.5 -25059.8 -25442.3 -25825.8 -26210.4 -26596.0 -26982.6
 S, KJ/(KG)(K)    75.9487  76.1684  76.3849  76.5983  76.8088  77.0163  77.2211  77.4230

 M, (1/n)           2.016    2.016    2.016    2.016    2.016    2.016    2.016    2.016
 (dLV/dLP)t      -0.99999 -0.99999 -0.99999 -0.99999 -0.99999 -0.99999 -0.99999 -0.99999
 (dLV/dLT)p        1.0000   1.0000   1.0000   1.0000   1.0000   1.0000   1.0000   1.0000
 Cp, KJ/(KG)(K)   14.3813  14.3923  14.4026  14.4120  14.4207  14.4286  14.4360  14.4427
 GAMMAs            1.4021   1.4017   1.4013   1.4009   1.4006   1.4003   1.4000   1.3997
 SON VEL,M/SEC     1370.9   1381.2   1391.5   1401.6   1411.7   1421.8   1431.7   1441.6

 TRANSPORT PROPERTIES (GASES ONLY)
   CONDUCTIVITY IN UNITS OF MILLIWATTS/(CM)(K)

 VISC,MILLIPOISE  0.00000  0.00000  0.00002  0.00016  0.00132  0.00967  0.04504  0.08666

  WITH EQUILIBRIUM REACTIONS

 Cp, KJ/(KG)(K)   14.3813  14.3923  14.4026  14.4120  14.4207  14.4286  14.4360  14.4427
 CONDUCTIVITY      0.0000   0.0000   0.0001   0.0010   0.0082   0.0641   0.4072   1.3507
 PRANDTL NUMBER    2.3326   2.3331   2.3334   2.3316   2.3128   2.1752   1.5965   0.9266

  WITH FROZEN REACTIONS

 Cp, KJ/(KG)(K)   14.3813  14.3923  14.4026  14.4120  14.4207  14.4286  14.4360  14.4427
 CONDUCTIVITY      0.0000   0.0000   0.0001   0.0010   0.0082   0.0641   0.4072   1.3507
 PRANDTL NUMBER    2.3326   2.3331   2.3334   2.3316   2.3128   2.1752   1.5965   0.9266

 MASS FRACTIONS

 *H2              1.00000  1.00000  1.00000  1.00000  1.00000  1.00000  1.00000  1.00000

  * THERMODYNAMIC PROPERTIES FITTED TO 20000.K

 NOTE. WEIGHT FRACTION OF FUEL IN TOTAL FUELS AND OF OXIDANT IN TOTAL OXIDANTS









               THERMODYNAMIC EQUILIBRIUM PROPERTIES AT ASSIGNED

                           TEMPERATURE AND PRESSURE

 CASE =                

             REACTANT                    WT FRACTION      ENERGY      TEMP
                                          (SEE NOTE)     KJ/KG-MOL      K  
 FUEL        H2                           1.0000000         0.000      0.000
 OXIDANT     H2                           1.0000000         0.000      0.000

 O/F=    1.00000  %FUEL= 50.000000  R,EQ.RATIO= 0.000000  PHI,EQ.RATIO=-1.000000

 THERMODYNAMIC PROPERTIES

 P, BAR           0.09100  0.09100  0.10000  0.10000  0.10000  0.10000  0.10000  0.10000
 T, K              365.00   370.00   300.00   305.00   310.00   315.00   320.00   325.00
 RHO, KG/CU M    6.0448-3 5.9631-3 8.0818-3 7.9493-3 7.8211-3 7.6970-3 7.5767-3 7.4601-3
 H, KJ/KG          961.93  1034.19   26.469   98.065   169.74   241.49   313.30   385.18
 U, KJ/KG         -543.51  -491.87 -1210.88 -1159.90 -1108.85 -1057.73 -1006.53  -955.28
 G, KJ/KG        -27370.2 -27758.8 -22297.0 -22669.6 -23043.4 -23418.4 -23794.5 -24171.7
 S, KJ/(KG)(K)    77.6223  77.8189  74.4114  74.6480  74.8811  75.1107  75.3369  75.5597

 M, (1/n)           2.016    2.016    2.016    2.016    2.016    2.016    2.016    2.016
 (dLV/dLP)t      -0.99999 -0.99999 -0.99999 -0.99999 -0.99999 -0.99999 -0.99999 -0.99999
 (dLV/dLT)p        1.0000   1.0000   1.0000   1.0000   1.0000   1.0000   1.0000   1.0000
 Cp, KJ/(KG)(K)   14.4489  14.4545  14.3109  14.3272  14.3423  14.3563  14.3693  14.3813
 GAMMAs            1.3995   1.3993   1.4049   1.4043   1.4037   1.4031   1.4026   1.4021
 SON VEL,M/SEC     1451.5   1461.3   1318.5   1329.1   1339.7   1350.2   1360.6   1370.9

 TRANSPORT PROPERTIES (GASES ONLY)
   CONDUCTIVITY IN UNITS OF MILLIWATTS/(CM)(K)

 VISC,MILLIPOISE  0.09994  0.10297  0.00000  0.00000  0.00000  0.00000  0.00000  0.00000

  WITH EQUILIBRIUM REACTIONS

 Cp, KJ/(KG)(K)   14.4489  14.4545  14.3109  14.3272  14.3423  14.3563  14.3693  14.3813
 CONDUCTIVITY      1.9898   2.1505   0.0000   0.0000   0.0000   0.0000   0.0000   0.0000
 PRANDTL NUMBER    0.7257   0.6921   2.3304   2.3307   2.3311   2.3315   2.3320   2.3326

  WITH FROZEN REACTIONS

 Cp, KJ/(KG)(K)   14.4489  14.4545  14.3109  14.3272  14.3423  14.3563  14.3693  14.3813
 CONDUCTIVITY      1.9898   2.1505   0.0000   0.0000   0.0000   0.0000   0.0000   0.0000
 PRANDTL NUMBER    0.7257   0.6921   2.3304   2.3307   2.3311   2.3315   2.3320   2.3326

 MASS FRACTIONS

 *H2              1.00000  1.00000  1.00000  1.00000  1.00000  1.00000  1.00000  1.00000

  * THERMODYNAMIC PROPERTIES FITTED TO 20000.K

 NOTE. WEIGHT FRACTION OF FUEL IN TOTAL FUELS AND OF OXIDANT IN TOTAL OXIDANTS









               THERMODYNAMIC EQUILIBRIUM PROPERTIES AT ASSIGNED

                           TEMPERATURE AND PRESSURE

 CASE =                

             REACTANT                    WT FRACTION      ENERGY      TEMP
                                          (SEE NOTE)     KJ/KG-MOL      K  
 FUEL        H2                           1.0000000         0.000      0.000
 OXIDANT     H2                           1.0000000         0.000      0.000

 O/F=    1.00000  %FUEL= 50.000000  R,EQ.RATIO= 0.000000  PHI,EQ.RATIO=-1.000000

 THERMODYNAMIC PROPERTIES

 P, BAR           0.10000  0.10000  0.10000  0.10000  0.10000  0.10000  0.10000  0.10000
 T, K              330.00   335.00   340.00   345.00   350.00   355.00   360.00   365.00
 RHO, KG/CU M    7.3471-3 7.2375-3 7.1310-3 7.0277-3 6.9273-3 6.8297-3 6.7349-3 6.6426-3
 H, KJ/KG          457.11   529.10   601.14   673.22   745.34   817.50   889.70   961.93
 U, KJ/KG         -903.97  -852.60  -801.19  -749.73  -698.23  -646.69  -595.11  -543.51
 G, KJ/KG        -24550.1 -24929.5 -25310.0 -25691.6 -26074.2 -26457.9 -26842.5 -27228.2
 S, KJ/(KG)(K)    75.7794  75.9959  76.2093  76.4198  76.6274  76.8321  77.0340  77.2333

 M, (1/n)           2.016    2.016    2.016    2.016    2.016    2.016    2.016    2.016
 (dLV/dLP)t      -0.99999 -0.99999 -0.99999 -0.99999 -0.99999 -0.99999 -0.99999 -0.99999
 (dLV/dLT)p        1.0000   1.0000   1.0000   1.0000   1.0000   1.0000   1.0000   1.0000
 Cp, KJ/(KG)(K)   14.3923  14.4026  14.4120  14.4207  14.4286  14.4360  14.4427  14.4489
 GAMMAs            1.4017   1.4013   1.4009   1.4006   1.4003   1.4000   1.3997   1.3995
 SON VEL,M/SEC     1381.2   1391.5   1401.6   1411.7   1421.8   1431.7   1441.6   1451.5

 TRANSPORT PROPERTIES (GASES ONLY)
   CONDUCTIVITY IN UNITS OF MILLIWATTS/(CM)(K)

 VISC,MILLIPOISE  0.00000  0.00002  0.00016  0.00132  0.00967  0.04504  0.08666  0.09994

  WITH EQUILIBRIUM REACTIONS

 Cp, KJ/(KG)(K)   14.3923  14.4026  14.4120  14.4207  14.4286  14.4360  14.4427  14.4489
 CONDUCTIVITY      0.0000   0.0001   0.0010   0.0082   0.0641   0.4072   1.3507   1.9898
 PRANDTL NUMBER    2.3331   2.3334   2.3316   2.3128   2.1752   1.5965   0.9266   0.7257

  WITH FROZEN REACTIONS

 Cp, KJ/(KG)(K)   14.3923  14.4026  14.4120  14.4207  14.4286  14.4360  14.4427  14.4489
 CONDUCTIVITY      0.0000   0.0001   0.0010   0.0082   0.0641   0.4072   1.3507   1.9898
 PRANDTL NUMBER    2.3331   2.3334   2.3316   2.3128   2.1752   1.5965   0.9266   0.7257

 MASS FRACTIONS

 *H2              1.00000  1.00000  1.00000  1.00000  1.00000  1.00000  1.00000  1.00000

  * THERMODYNAMIC PROPERTIES FITTED TO 20000.K

 NOTE. WEIGHT FRACTION OF FUEL IN TOTAL FUELS AND OF OXIDANT IN TOTAL OXIDANTS









               THERMODYNAMIC EQUILIBRIUM PROPERTIES AT ASSIGNED

                           TEMPERATURE AND PRESSURE

 CASE =                

             REACTANT                    WT FRACTION      ENERGY      TEMP
                                          (SEE NOTE)     KJ/KG-MOL      K  
 FUEL        H2                           1.0000000         0.000      0.000
 OXIDANT     H2                           1.0000000         0.000      0.000

 O/F=    1.00000  %FUEL= 50.000000  R,EQ.RATIO= 0.000000  PHI,EQ.RATIO=-1.000000

 THERMODYNAMIC PROPERTIES

 P, BAR           0.10000
 T, K              370.00
 RHO, KG/CU M    6.5528-3
 H, KJ/KG         1034.19
 U, KJ/KG         -491.87
 G, KJ/KG        -27614.9
 S, KJ/(KG)(K)    77.4299

 M, (1/n)           2.016
 (dLV/dLP)t      -0.99999
 (dLV/dLT)p        1.0000
 Cp, KJ/(KG)(K)   14.4545
 GAMMAs            1.3993
 SON VEL,M/SEC     1461.3

 TRANSPORT PROPERTIES (GASES ONLY)
   CONDUCTIVITY IN UNITS OF MILLIWATTS/(CM)(K)

 VISC,MILLIPOISE  0.10297

  WITH EQUILIBRIUM REACTIONS

 Cp, KJ/(KG)(K)   14.4545
 CONDUCTIVITY      2.1505
 PRANDTL NUMBER    0.6921

  WITH FROZEN REACTIONS

 Cp, KJ/(KG)(K)   14.4545
 CONDUCTIVITY      2.1505
 PRANDTL NUMBER    0.6921

 MASS FRACTIONS

 *H2              1.00000

  * THERMODYNAMIC PROPERTIES FITTED TO 20000.K

 NOTE. WEIGHT FRACTION OF FUEL IN TOTAL FUELS AND OF OXIDANT IN TOTAL OXIDANTS



  
